
     RDKit          2D

 36 40  0  0  0  0  0  0  0  0999 V2000
    6.3943    3.9826    0.0000 C   0  0  0  0  0  0  0  0  0  0  0  0
    4.8943    3.9826    0.0000 C   0  0  0  0  0  0  0  0  0  0  0  0
    4.1443    5.2817    0.0000 C   0  0  0  0  0  0  0  0  0  0  0  0
    4.1443    2.6836    0.0000 C   0  0  0  0  0  0  0  0  0  0  0  0
    2.6443    2.6836    0.0000 C   0  0  0  0  0  0  0  0  0  0  0  0
    1.8943    3.9826    0.0000 C   0  0  0  0  0  0  0  0  0  0  0  0
    0.3943    3.9826    0.0000 O   0  0  0  0  0  0  0  0  0  0  0  0
    2.6443    5.2817    0.0000 O   0  0  0  0  0  0  0  0  0  0  0  0
    1.8943    1.3846    0.0000 C   0  0  0  0  0  0  0  0  0  0  0  0
    0.3943    1.2135    0.0000 C   0  0  0  0  0  0  0  0  0  0  0  0
    1.2760    0.0000    0.0000 C   0  0  0  0  0  0  0  0  0  0  0  0
    0.3943   -1.2135    0.0000 C   0  0  0  0  0  0  0  0  0  0  0  0
   -1.0323   -0.7500    0.0000 N   0  0  0  0  0  0  0  0  0  0  0  0
   -1.0323    0.7500    0.0000 C   0  0  0  0  0  0  0  0  0  0  0  0
   -2.2458    1.6317    0.0000 O   0  0  0  0  0  0  0  0  0  0  0  0
    1.8943   -1.2135    0.0000 C   0  0  0  0  0  0  0  0  0  0  0  0
    2.6443   -2.5126    0.0000 O   0  0  0  0  0  0  0  0  0  0  0  0
    2.6443    0.0855    0.0000 N   0  0  0  0  0  0  0  0  0  0  0  0
    4.1443    0.0855    0.0000 C   0  0  0  0  0  0  0  0  0  0  0  0
    4.8943   -1.2135    0.0000 C   0  0  0  0  0  0  0  0  0  0  0  0
    4.1443   -2.5126    0.0000 C   0  0  0  0  0  0  0  0  0  0  0  0
    4.8943   -3.8116    0.0000 C   0  0  0  0  0  0  0  0  0  0  0  0
    6.3943   -3.8116    0.0000 C   0  0  0  0  0  0  0  0  0  0  0  0
    7.1443   -5.1106    0.0000 C   0  0  0  0  0  0  0  0  0  0  0  0
    6.3943   -6.4097    0.0000 C   0  0  0  0  0  0  0  0  0  0  0  0
    7.1443   -7.7087    0.0000 C   0  0  0  0  0  0  0  0  0  0  0  0
    8.6443   -7.7087    0.0000 C   0  0  0  0  0  0  0  0  0  0  0  0
    9.3943   -6.4097    0.0000 C   0  0  0  0  0  0  0  0  0  0  0  0
    8.6443   -5.1106    0.0000 C   0  0  0  0  0  0  0  0  0  0  0  0
    9.3943   -3.8116    0.0000 C   0  0  0  0  0  0  0  0  0  0  0  0
    8.7842   -2.4413    0.0000 N   0  0  0  0  0  0  0  0  0  0  0  0
    9.8989   -1.4376    0.0000 N   0  0  0  0  0  0  0  0  0  0  0  0
   11.1979   -2.1876    0.0000 N   0  0  0  0  0  0  0  0  0  0  0  0
   10.8861   -3.6548    0.0000 N   0  0  0  0  0  0  0  0  0  0  0  0
    7.1443   -2.5126    0.0000 C   0  0  0  0  0  0  0  0  0  0  0  0
    6.3943   -1.2135    0.0000 C   0  0  0  0  0  0  0  0  0  0  0  0
  1  2  1  0
  2  3  1  0
  2  4  1  0
  4  5  1  0
  5  6  1  0
  6  7  2  0
  6  8  1  0
  5  9  2  3
  9 10  1  0
 10 11  2  0
 11 12  2  0
 12 13  1  0
 13 14  1  0
 14 15  2  0
 12 16  1  0
 16 17  2  0
 16 18  1  0
 18 19  1  0
 19 20  1  0
 20 21  2  0
 21 22  1  0
 22 23  2  0
 23 24  1  0
 24 25  2  0
 25 26  1  0
 26 27  2  0
 27 28  1  0
 28 29  2  0
 29 30  1  0
 30 31  2  0
 31 32  1  0
 32 33  2  0
 33 34  1  0
 23 35  1  0
 35 36  2  0
 18  9  1  0
 36 20  1  0
 14 10  1  0
 29 24  1  0
 34 30  1  0
M  END
$$$$
