
     RDKit          2D

 55 59  0  0  0  0  0  0  0  0999 V2000
    5.2485    3.8256    0.0000 C   0  0  0  0  0  0  0  0  0  0  0  0
    5.7120    2.3990    0.0000 C   0  0  0  0  0  0  0  0  0  0  0  0
    4.7083    1.2843    0.0000 C   0  0  0  0  0  0  0  0  0  0  0  0
    5.1718   -0.1423    0.0000 C   0  0  0  0  0  0  0  0  0  0  0  0
    4.1682   -1.2570    0.0000 C   0  0  0  0  0  0  0  0  0  0  0  0
    4.6317   -2.6836    0.0000 C   0  0  0  0  0  0  0  0  0  0  0  0
    6.0583   -3.1471    0.0000 C   0  0  0  0  0  0  0  0  0  0  0  0
    6.0583   -4.6471    0.0000 C   0  0  0  0  0  0  0  0  0  0  0  0
    7.2718   -5.5288    0.0000 C   0  0  0  0  0  0  0  0  0  0  0  0
    8.6421   -4.9187    0.0000 C   0  0  0  0  0  0  0  0  0  0  0  0
    4.6317   -5.1106    0.0000 C   0  0  0  0  0  0  0  0  0  0  0  0
    3.7500   -3.8971    0.0000 C   0  0  0  0  0  0  0  0  0  0  0  0
    2.2500   -3.8971    0.0000 N   0  0  0  0  0  0  0  0  0  0  0  0
    1.5000   -2.5981    0.0000 S   0  0  0  0  0  0  0  0  0  0  0  0
    0.2010   -3.3481    0.0000 O   0  0  0  0  0  0  0  0  0  0  0  0
    2.7990   -1.8481    0.0000 O   0  0  0  0  0  0  0  0  0  0  0  0
    0.7500   -1.2990    0.0000 C   0  0  0  0  0  0  0  0  0  0  0  0
    1.5000   -0.0000    0.0000 C   0  0  0  0  0  0  0  0  0  0  0  0
    0.7500    1.2990    0.0000 C   0  0  0  0  0  0  0  0  0  0  0  0
   -0.7500    1.2990    0.0000 C   0  0  0  0  0  0  0  0  0  0  0  0
   -1.5000   -0.0000    0.0000 C   0  0  0  0  0  0  0  0  0  0  0  0
   -0.7500   -1.2990    0.0000 C   0  0  0  0  0  0  0  0  0  0  0  0
   -1.5000   -2.5981    0.0000 C   0  0  0  0  0  0  0  0  0  0  0  0
   -3.0000   -2.5981    0.0000 C   0  0  0  0  0  0  0  0  0  0  0  0
   -3.7500   -3.8971    0.0000 C   0  0  0  0  0  0  0  0  0  0  0  0
   -3.0000   -5.1962    0.0000 C   0  0  0  0  0  0  0  0  0  0  0  0
   -3.7500   -6.4952    0.0000 C   0  0  0  0  0  0  0  0  0  0  0  0
   -5.2500   -6.4952    0.0000 N   0  0  0  0  0  0  0  0  0  0  0  0
   -6.1317   -7.7087    0.0000 C   0  0  0  0  0  0  0  0  0  0  0  0
   -5.6682   -9.1353    0.0000 O   0  0  0  0  0  0  0  0  0  0  0  0
   -7.5583   -7.2452    0.0000 N   0  0  0  0  0  0  0  0  0  0  0  0
   -8.7718   -8.1269    0.0000 C   0  0  0  0  0  0  0  0  0  0  0  0
  -10.1421   -7.5168    0.0000 C   0  0  0  0  0  0  0  0  0  0  0  0
  -11.3556   -8.3984    0.0000 C   0  0  0  0  0  0  0  0  0  0  0  0
  -12.7260   -7.7883    0.0000 N   0  0  0  0  0  0  0  0  0  0  0  0
  -12.8827   -6.2966    0.0000 C   0  0  0  0  0  0  0  0  0  0  0  0
  -11.6692   -5.4149    0.0000 O   0  0  0  0  0  0  0  0  0  0  0  0
  -14.2531   -5.6864    0.0000 C   0  0  0  0  0  0  0  0  0  0  0  0
  -14.4099   -4.1947    0.0000 C   0  0  0  0  0  0  0  0  0  0  0  0
  -11.1988   -9.8902    0.0000 C   0  0  0  0  0  0  0  0  0  0  0  0
   -9.8285  -10.5003    0.0000 C   0  0  0  0  0  0  0  0  0  0  0  0
   -8.6150   -9.6187    0.0000 C   0  0  0  0  0  0  0  0  0  0  0  0
   -7.2447  -10.2288    0.0000 C   0  0  0  0  0  0  0  0  0  0  0  0
   -5.8744  -10.8389    0.0000 F   0  0  0  0  0  0  0  0  0  0  0  0
   -7.8548  -11.5991    0.0000 F   0  0  0  0  0  0  0  0  0  0  0  0
   -6.6346   -8.8584    0.0000 F   0  0  0  0  0  0  0  0  0  0  0  0
   -7.5583   -5.7452    0.0000 N   0  0  0  0  0  0  0  0  0  0  0  0
   -6.1317   -5.2817    0.0000 C   0  0  0  0  0  0  0  0  0  0  0  0
   -5.6682   -3.8551    0.0000 C   0  0  0  0  0  0  0  0  0  0  0  0
   -6.6718   -2.7404    0.0000 C   0  0  0  0  0  0  0  0  0  0  0  0
   -6.2083   -1.3138    0.0000 C   0  0  0  0  0  0  0  0  0  0  0  0
   -7.2120   -0.1991    0.0000 C   0  0  0  0  0  0  0  0  0  0  0  0
   -1.5000   -5.1962    0.0000 C   0  0  0  0  0  0  0  0  0  0  0  0
   -0.7500   -6.4952    0.0000 F   0  0  0  0  0  0  0  0  0  0  0  0
   -0.7500   -3.8971    0.0000 C   0  0  0  0  0  0  0  0  0  0  0  0
  1  2  1  0
  2  3  1  0
  3  4  1  0
  4  5  1  0
  5  6  1  0
  6  7  2  0
  7  8  1  0
  8  9  1  0
  9 10  1  0
  8 11  2  0
 11 12  2  0
 12 13  1  0
 13 14  1  0
 14 15  2  0
 14 16  2  0
 14 17  1  0
 17 18  2  0
 18 19  1  0
 19 20  2  0
 20 21  1  0
 21 22  2  0
 22 23  1  0
 23 24  2  0
 24 25  1  0
 25 26  2  0
 26 27  1  0
 27 28  1  0
 28 29  1  0
 29 30  2  0
 29 31  1  0
 31 32  1  0
 32 33  2  0
 33 34  1  0
 34 35  1  0
 35 36  1  0
 36 37  2  0
 36 38  1  0
 38 39  1  0
 34 40  2  0
 40 41  1  0
 41 42  2  0
 42 43  1  0
 43 44  1  0
 43 45  1  0
 43 46  1  0
 31 47  1  0
 47 48  2  0
 48 49  1  0
 49 50  1  0
 50 51  1  0
 51 52  1  0
 26 53  1  0
 53 54  1  0
 53 55  2  0
 12  6  1  0
 22 17  1  0
 55 23  1  0
 48 28  1  0
 42 32  1  0
M  END
$$$$
