
     RDKit          2D

 29 31  0  0  0  0  0  0  0  0999 V2000
   -3.7755    6.5564    0.0000 C   0  0  0  0  0  0  0  0  0  0  0  0
   -2.3385    6.9866    0.0000 O   0  0  0  0  0  0  0  0  0  0  0  0
   -1.2474    5.9572    0.0000 C   0  0  0  0  0  0  0  0  0  0  0  0
   -1.5934    4.4976    0.0000 C   0  0  0  0  0  0  0  0  0  0  0  0
   -0.5023    3.4683    0.0000 C   0  0  0  0  0  0  0  0  0  0  0  0
    0.9347    3.8985    0.0000 C   0  0  0  0  0  0  0  0  0  0  0  0
    2.0257    2.8691    0.0000 C   0  0  0  0  0  0  0  0  0  0  0  0
    1.6798    1.4095    0.0000 C   0  0  0  0  0  0  0  0  0  0  0  0
    3.1773    1.4968    0.0000 C   0  0  0  0  0  0  0  0  0  0  0  0
    4.4305    2.3210    0.0000 N   0  0  0  0  0  0  0  0  0  0  0  0
    4.5177    0.8236    0.0000 N   0  0  0  0  0  0  0  0  0  0  0  0
    5.3420   -0.4297    0.0000 O   0  0  0  0  0  0  0  0  0  0  0  0
    6.8395   -0.3425    0.0000 C   0  0  0  0  0  0  0  0  0  0  0  0
    7.5127    0.9980    0.0000 O   0  0  0  0  0  0  0  0  0  0  0  0
    7.6637   -1.5957    0.0000 O   0  0  0  0  0  0  0  0  0  0  0  0
    9.1612   -1.5085    0.0000 C   0  0  0  0  0  0  0  0  0  0  0  0
    9.9854   -2.7617    0.0000 C   0  0  0  0  0  0  0  0  0  0  0  0
    9.8344   -0.1680    0.0000 C   0  0  0  0  0  0  0  0  0  0  0  0
    2.1929    0.0000    0.0000 C   0  0  0  0  0  0  0  0  0  0  0  0
    1.6798   -1.4095    0.0000 C   0  0  0  0  0  0  0  0  0  0  0  0
    0.3808   -2.1595    0.0000 C   0  0  0  0  0  0  0  0  0  0  0  0
   -1.0964   -1.8991    0.0000 C   0  0  0  0  0  0  0  0  0  0  0  0
   -2.0606   -0.7500    0.0000 C   0  0  0  0  0  0  0  0  0  0  0  0
   -2.0606    0.7500    0.0000 C   0  0  0  0  0  0  0  0  0  0  0  0
   -1.0964    1.8991    0.0000 C   0  0  0  0  0  0  0  0  0  0  0  0
    0.3808    2.1595    0.0000 C   0  0  0  0  0  0  0  0  0  0  0  0
    0.2960    3.3716    0.0000 O   0  0  0  0  0  0  0  0  0  0  0  0
    1.2806    5.3580    0.0000 C   0  0  0  0  0  0  0  0  0  0  0  0
    0.1895    6.3874    0.0000 C   0  0  0  0  0  0  0  0  0  0  0  0
  1  2  1  0
  2  3  1  0
  3  4  2  0
  4  5  1  0
  5  6  2  0
  6  7  1  0
  7  8  1  0
  8  9  1  0
  9 10  2  0
 10 11  1  0
 11 12  1  0
 12 13  1  0
 13 14  2  0
 13 15  1  0
 15 16  1  0
 16 17  1  0
 16 18  1  0
  8 19  1  0
 19 20  1  0
 20 21  1  0
 21 22  1  0
 22 23  1  0
 23 24  1  0
 24 25  1  0
 25 26  1  0
 26 27  2  0
  6 28  1  0
 28 29  2  0
 29  3  1  0
 26  8  1  0
 11  9  1  0
M  END
$$$$
