
     RDKit          2D

 32 36  0  0  0  0  0  0  0  0999 V2000
    5.7023   -6.8839    0.0000 C   0  0  0  0  0  0  0  0  0  0  0  0
    4.6416   -5.8232    0.0000 C   0  0  0  0  0  0  0  0  0  0  0  0
    5.0299   -4.3743    0.0000 C   0  0  0  0  0  0  0  0  0  0  0  0
    3.9692   -3.3137    0.0000 C   0  0  0  0  0  0  0  0  0  0  0  0
    2.4877   -3.5483    0.0000 C   0  0  0  0  0  0  0  0  0  0  0  0
    1.1512   -2.8674    0.0000 C   0  0  0  0  0  0  0  0  0  0  0  0
    1.3858   -1.3858    0.0000 C   0  0  0  0  0  0  0  0  0  0  0  0
    1.9598    0.0000    0.0000 C   0  0  0  0  0  0  0  0  0  0  0  0
    1.3858    1.3858    0.0000 C   0  0  0  0  0  0  0  0  0  0  0  0
    0.0000    1.9598    0.0000 C   0  0  0  0  0  0  0  0  0  0  0  0
   -1.3858    1.3858    0.0000 C   0  0  0  0  0  0  0  0  0  0  0  0
   -1.9598    0.0000    0.0000 C   0  0  0  0  0  0  0  0  0  0  0  0
   -1.3858   -1.3858    0.0000 C   0  0  0  0  0  0  0  0  0  0  0  0
   -0.0000   -1.9598    0.0000 C   0  0  0  0  0  0  0  0  0  0  0  0
    2.8674   -1.1512    0.0000 C   0  0  0  0  0  0  0  0  0  0  0  0
    4.2039   -1.8322    0.0000 N   0  0  0  0  0  0  0  0  0  0  0  0
    3.5483   -2.4877    0.0000 N   0  0  0  0  0  0  0  0  0  0  0  0
    5.0299   -2.7223    0.0000 C   0  0  0  0  0  0  0  0  0  0  0  0
    5.9739   -1.5566    0.0000 C   0  0  0  0  0  0  0  0  0  0  0  0
    7.4554   -1.7913    0.0000 C   0  0  0  0  0  0  0  0  0  0  0  0
    8.3994   -0.6255    0.0000 C   0  0  0  0  0  0  0  0  0  0  0  0
    7.8618    0.7748    0.0000 C   0  0  0  0  0  0  0  0  0  0  0  0
    8.8058    1.9405    0.0000 C   0  0  0  0  0  0  0  0  0  0  0  0
   10.2873    1.7059    0.0000 C   0  0  0  0  0  0  0  0  0  0  0  0
   10.8249    0.3055    0.0000 C   0  0  0  0  0  0  0  0  0  0  0  0
    9.8809   -0.8602    0.0000 C   0  0  0  0  0  0  0  0  0  0  0  0
   10.4184   -2.2606    0.0000 C   0  0  0  0  0  0  0  0  0  0  0  0
    9.4745   -3.4263    0.0000 O   0  0  0  0  0  0  0  0  0  0  0  0
   11.9000   -2.4952    0.0000 O   0  0  0  0  0  0  0  0  0  0  0  0
    7.9929   -3.1916    0.0000 C   0  0  0  0  0  0  0  0  0  0  0  0
    7.0490   -4.3574    0.0000 C   0  0  0  0  0  0  0  0  0  0  0  0
    5.5674   -4.1227    0.0000 C   0  0  0  0  0  0  0  0  0  0  0  0
  1  2  1  0
  2  3  1  0
  3  4  1  0
  4  5  2  0
  5  6  1  0
  6  7  1  0
  7  8  1  0
  8  9  1  0
  9 10  1  0
 10 11  1  0
 11 12  1  0
 12 13  1  0
 13 14  1  0
  7 15  1  0
 15 16  2  0
 15 17  1  0
 17 18  1  0
 18 19  2  0
 19 20  1  0
 20 21  1  0
 21 22  2  0
 22 23  1  0
 23 24  2  0
 24 25  1  0
 25 26  2  0
 26 27  1  0
 27 28  2  0
 27 29  1  0
 20 30  2  0
 30 31  1  0
 31 32  2  0
 16  4  1  0
 32 18  1  0
 17  5  1  0
 26 21  1  0
 14  7  1  0
M  END
$$$$
