
     RDKit          2D

 40 44  0  0  0  0  0  0  0  0999 V2000
  -11.4181    3.3399    0.0000 C   0  0  0  0  0  0  0  0  0  0  0  0
  -10.8080    1.9696    0.0000 C   0  0  0  0  0  0  0  0  0  0  0  0
   -9.3162    1.8128    0.0000 C   0  0  0  0  0  0  0  0  0  0  0  0
   -8.5662    0.5138    0.0000 C   0  0  0  0  0  0  0  0  0  0  0  0
   -7.0990    0.8256    0.0000 C   0  0  0  0  0  0  0  0  0  0  0  0
   -5.9843   -0.1781    0.0000 C   0  0  0  0  0  0  0  0  0  0  0  0
   -6.2961   -1.6453    0.0000 C   0  0  0  0  0  0  0  0  0  0  0  0
   -5.1814   -2.6490    0.0000 C   0  0  0  0  0  0  0  0  0  0  0  0
   -3.7548   -2.1855    0.0000 C   0  0  0  0  0  0  0  0  0  0  0  0
   -2.6401   -3.1891    0.0000 C   0  0  0  0  0  0  0  0  0  0  0  0
   -1.2135   -2.7256    0.0000 N   0  0  0  0  0  0  0  0  0  0  0  0
   -0.0000   -3.6073    0.0000 C   0  0  0  0  0  0  0  0  0  0  0  0
    0.0000   -5.1073    0.0000 C   0  0  0  0  0  0  0  0  0  0  0  0
   -1.2990   -5.8573    0.0000 C   0  0  0  0  0  0  0  0  0  0  0  0
    1.2135   -2.7256    0.0000 N   0  0  0  0  0  0  0  0  0  0  0  0
    0.7500   -1.2990    0.0000 C   0  0  0  0  0  0  0  0  0  0  0  0
    1.5000    0.0000    0.0000 C   0  0  0  0  0  0  0  0  0  0  0  0
    3.0000    0.0000    0.0000 C   0  0  0  0  0  0  0  0  0  0  0  0
    0.7500    1.2990    0.0000 C   0  0  0  0  0  0  0  0  0  0  0  0
   -0.7500    1.2990    0.0000 C   0  0  0  0  0  0  0  0  0  0  0  0
   -1.5000    2.5981    0.0000 C   0  0  0  0  0  0  0  0  0  0  0  0
   -1.5000    0.0000    0.0000 N   0  0  0  0  0  0  0  0  0  0  0  0
   -0.7500   -1.2990    0.0000 C   0  0  0  0  0  0  0  0  0  0  0  0
   -3.4430   -0.7182    0.0000 C   0  0  0  0  0  0  0  0  0  0  0  0
   -4.5577    0.2855    0.0000 C   0  0  0  0  0  0  0  0  0  0  0  0
   -6.9422    2.3174    0.0000 C   0  0  0  0  0  0  0  0  0  0  0  0
   -5.6431    3.0674    0.0000 S   0  0  0  0  0  0  0  0  0  0  0  0
   -6.3931    4.3665    0.0000 O   0  0  0  0  0  0  0  0  0  0  0  0
   -4.8931    1.7684    0.0000 O   0  0  0  0  0  0  0  0  0  0  0  0
   -4.3441    3.8174    0.0000 N   0  0  0  0  0  0  0  0  0  0  0  0
   -4.3441    5.3174    0.0000 C   0  0  0  0  0  0  0  0  0  0  0  0
   -5.6431    6.0674    0.0000 O   0  0  0  0  0  0  0  0  0  0  0  0
   -3.0451    6.0674    0.0000 C   0  0  0  0  0  0  0  0  0  0  0  0
   -1.7460    5.3174    0.0000 C   0  0  0  0  0  0  0  0  0  0  0  0
   -0.4470    6.0674    0.0000 C   0  0  0  0  0  0  0  0  0  0  0  0
   -0.4470    7.5674    0.0000 C   0  0  0  0  0  0  0  0  0  0  0  0
   -1.7460    8.3174    0.0000 C   0  0  0  0  0  0  0  0  0  0  0  0
   -3.0451    7.5674    0.0000 C   0  0  0  0  0  0  0  0  0  0  0  0
   -4.3441    8.3174    0.0000 Cl  0  0  0  0  0  0  0  0  0  0  0  0
   -8.3125    2.9275    0.0000 S   0  0  0  0  0  0  0  0  0  0  0  0
  1  2  1  0
  2  3  1  0
  3  4  2  0
  4  5  1  0
  5  6  1  0
  6  7  2  0
  7  8  1  0
  8  9  2  0
  9 10  1  0
 10 11  1  0
 11 12  1  0
 12 13  1  0
 13 14  1  0
 12 15  2  0
 15 16  1  0
 16 17  2  0
 17 18  1  0
 17 19  1  0
 19 20  2  0
 20 21  1  0
 20 22  1  0
 22 23  2  0
  9 24  1  0
 24 25  2  0
  5 26  2  0
 26 27  1  0
 27 28  2  0
 27 29  2  0
 27 30  1  0
 30 31  1  0
 31 32  2  0
 31 33  1  0
 33 34  2  0
 34 35  1  0
 35 36  2  0
 36 37  1  0
 37 38  2  0
 38 39  1  0
 26 40  1  0
 40  3  1  0
 25  6  1  0
 38 33  1  0
 23 11  1  0
 23 16  1  0
M  END
$$$$
