
     RDKit          2D

 75 83  0  0  0  0  0  0  0  0999 V2000
    3.5260   -1.2990    0.0000 C   0  0  0  0  0  0  0  0  0  0  0  0
    2.7760    0.0000    0.0000 C   0  0  0  0  0  0  0  0  0  0  0  0
    1.2760    0.0000    0.0000 C   0  0  0  0  0  0  0  0  0  0  0  0
    0.3943    1.2135    0.0000 C   0  0  0  0  0  0  0  0  0  0  0  0
   -1.0323    0.7500    0.0000 C   0  0  0  0  0  0  0  0  0  0  0  0
   -1.0323   -0.7500    0.0000 C   0  0  0  0  0  0  0  0  0  0  0  0
    0.3943   -1.2135    0.0000 S   0  0  0  0  0  0  0  0  0  0  0  0
   -2.3313   -1.5000    0.0000 N   0  0  0  0  0  0  0  0  0  0  0  0
   -2.3313   -3.0000    0.0000 C   0  0  0  0  0  0  0  0  0  0  0  0
   -3.6304   -3.7500    0.0000 C   0  0  0  0  0  0  0  0  0  0  0  0
   -4.9294   -3.0000    0.0000 C   0  0  0  0  0  0  0  0  0  0  0  0
   -6.2284   -3.7500    0.0000 C   0  0  0  0  0  0  0  0  0  0  0  0
   -6.2284   -5.2500    0.0000 C   0  0  0  0  0  0  0  0  0  0  0  0
   -7.5275   -6.0000    0.0000 C   0  0  0  0  0  0  0  0  0  0  0  0
   -8.8265   -5.2500    0.0000 C   0  0  0  0  0  0  0  0  0  0  0  0
  -10.1256   -6.0000    0.0000 C   0  0  0  0  0  0  0  0  0  0  0  0
  -10.1256   -7.5000    0.0000 C   0  0  0  0  0  0  0  0  0  0  0  0
   -8.8265   -8.2500    0.0000 C   0  0  0  0  0  0  0  0  0  0  0  0
   -7.5275   -7.5000    0.0000 C   0  0  0  0  0  0  0  0  0  0  0  0
   -6.2284   -8.2500    0.0000 C   0  0  0  0  0  0  0  0  0  0  0  0
   -6.3405   -9.7458    0.0000 N   0  0  0  0  0  0  0  0  0  0  0  0
   -5.2410  -10.7661    0.0000 C   0  0  0  0  0  0  0  0  0  0  0  0
   -5.6831  -12.1994    0.0000 O   0  0  0  0  0  0  0  0  0  0  0  0
   -3.7577  -10.5425    0.0000 N   0  0  0  0  0  0  0  0  0  0  0  0
   -3.0077   -9.2435    0.0000 N   0  0  0  0  0  0  0  0  0  0  0  0
   -3.5557   -7.8472    0.0000 C   0  0  0  0  0  0  0  0  0  0  0  0
   -4.9891   -7.4050    0.0000 N   0  0  0  0  0  0  0  0  0  0  0  0
   -4.9294   -6.0000    0.0000 C   0  0  0  0  0  0  0  0  0  0  0  0
   -3.6304   -5.2500    0.0000 C   0  0  0  0  0  0  0  0  0  0  0  0
   -2.3313   -6.0000    0.0000 C   0  0  0  0  0  0  0  0  0  0  0  0
   -1.0323   -5.2500    0.0000 O   0  0  0  0  0  0  0  0  0  0  0  0
   -2.3313   -7.5000    0.0000 N   0  0  0  0  0  0  0  0  0  0  0  0
   -1.0323   -8.2500    0.0000 C   0  0  0  0  0  0  0  0  0  0  0  0
    0.2668   -7.5000    0.0000 C   0  0  0  0  0  0  0  0  0  0  0  0
    1.5658   -8.2500    0.0000 C   0  0  0  0  0  0  0  0  0  0  0  0
    1.5658   -9.7500    0.0000 C   0  0  0  0  0  0  0  0  0  0  0  0
    0.2668  -10.5000    0.0000 C   0  0  0  0  0  0  0  0  0  0  0  0
   -1.0323   -9.7500    0.0000 C   0  0  0  0  0  0  0  0  0  0  0  0
   -0.2953   -9.3828    0.0000 N   0  0  0  0  0  0  0  0  0  0  0  0
    0.2668  -12.0000    0.0000 O   0  0  0  0  0  0  0  0  0  0  0  0
   -1.0323  -12.7500    0.0000 O   0  0  0  0  0  0  0  0  0  0  0  0
   -1.0323  -14.2500    0.0000 O   0  0  0  0  0  0  0  0  0  0  0  0
   -2.3313  -15.0000    0.0000 O   0  0  0  0  0  0  0  0  0  0  0  0
   -2.3313  -16.5000    0.0000 O   0  0  0  0  0  0  0  0  0  0  0  0
   -3.6304  -17.2500    0.0000 O   0  0  0  0  0  0  0  0  0  0  0  0
   -3.6304  -18.7500    0.0000 O   0  0  0  0  0  0  0  0  0  0  0  0
   -4.9294  -19.5000    0.0000 C   0  0  0  0  0  0  0  0  0  0  0  0
   -6.2284  -18.7500    0.0000 C   0  0  0  0  0  0  0  0  0  0  0  0
   -7.5275  -19.5000    0.0000 C   0  0  0  0  0  0  0  0  0  0  0  0
   -7.5275  -21.0000    0.0000 C   0  0  0  0  0  0  0  0  0  0  0  0
   -8.8265  -21.7500    0.0000 O   0  0  0  0  0  0  0  0  0  0  0  0
   -6.2284  -21.7500    0.0000 C   0  0  0  0  0  0  0  0  0  0  0  0
   -6.2284  -23.2500    0.0000 O   0  0  0  0  0  0  0  0  0  0  0  0
   -4.9294  -24.0000    0.0000 O   0  0  0  0  0  0  0  0  0  0  0  0
   -4.9294  -25.5000    0.0000 C   0  0  0  0  0  0  0  0  0  0  0  0
   -3.4294  -25.5000    0.0000 O   0  0  0  0  0  0  0  0  0  0  0  0
   -6.4294  -25.5000    0.0000 O   0  0  0  0  0  0  0  0  0  0  0  0
   -4.9294  -27.0000    0.0000 O   0  0  0  0  0  0  0  0  0  0  0  0
   -4.9294  -21.0000    0.0000 C   0  0  0  0  0  0  0  0  0  0  0  0
    0.8793   -8.7046    0.0000 O   0  0  0  0  0  0  0  0  0  0  0  0
   -3.6304   -0.7500    0.0000 C   0  0  0  0  0  0  0  0  0  0  0  0
   -4.9294   -1.5000    0.0000 O   0  0  0  0  0  0  0  0  0  0  0  0
   -3.6304    0.7500    0.0000 N   0  0  0  0  0  0  0  0  0  0  0  0
   -4.9294    1.5000    0.0000 C   0  0  0  0  0  0  0  0  0  0  0  0
   -4.9294    3.0000    0.0000 C   0  0  0  0  0  0  0  0  0  0  0  0
   -6.2284    3.7500    0.0000 C   0  0  0  0  0  0  0  0  0  0  0  0
   -7.5275    3.0000    0.0000 C   0  0  0  0  0  0  0  0  0  0  0  0
   -8.8265    3.7500    0.0000 O   0  0  0  0  0  0  0  0  0  0  0  0
   -8.8265    5.2500    0.0000 C   0  0  0  0  0  0  0  0  0  0  0  0
   -7.5275    1.5000    0.0000 C   0  0  0  0  0  0  0  0  0  0  0  0
   -8.8265    0.7500    0.0000 O   0  0  0  0  0  0  0  0  0  0  0  0
   -8.8265   -0.7500    0.0000 C   0  0  0  0  0  0  0  0  0  0  0  0
   -6.2284    0.7500    0.0000 C   0  0  0  0  0  0  0  0  0  0  0  0
   -2.3313    1.5000    0.0000 C   0  0  0  0  0  0  0  0  0  0  0  0
   -2.3313    3.0000    0.0000 O   0  0  0  0  0  0  0  0  0  0  0  0
  1  2  1  0
  2  3  1  0
  3  4  2  0
  4  5  1  0
  5  6  2  0
  6  7  1  0
  6  8  1  0
  8  9  1  0
  9 10  1  0
 10 11  2  0
 11 12  1  0
 12 13  2  0
 13 14  1  0
 14 15  2  0
 15 16  1  0
 16 17  2  0
 17 18  1  0
 18 19  2  0
 19 20  1  0
 20 21  2  0
 21 22  1  0
 22 23  2  0
 22 24  1  0
 24 25  1  0
 25 26  2  0
 26 27  2  0
 13 28  1  0
 28 29  2  0
 29 30  1  0
 30 31  2  0
 30 32  1  0
 32 33  1  0
 33 34  2  0
 34 35  1  0
 35 36  2  0
 36 37  1  0
 37 38  2  0
 38 39  1  0
 39 40  1  0
 40 41  1  0
 41 42  1  0
 42 43  1  0
 43 44  1  0
 44 45  1  0
 45 46  1  0
 46 47  1  0
 47 48  2  0
 48 49  1  0
 49 50  2  0
 50 51  1  0
 50 52  1  0
 52 53  1  0
 53 54  1  0
 54 55  1  0
 55 56  1  0
 55 57  1  0
 55 58  1  0
 52 59  2  0
 39 60  1  0
  8 61  1  0
 61 62  2  0
 61 63  1  0
 63 64  1  0
 64 65  2  0
 65 66  1  0
 66 67  2  0
 67 68  1  0
 68 69  1  0
 67 70  1  0
 70 71  1  0
 71 72  1  0
 70 73  2  0
 63 74  1  0
 74 75  2  0
  7  3  1  0
 29 10  1  0
 38 33  1  0
 59 47  1  0
 73 64  1  0
 74  5  1  0
 19 14  1  0
 27 20  1  0
 60 35  1  0
M  END
$$$$
