
     RDKit          2D

 47 53  0  0  0  0  0  0  0  0999 V2000
   14.8509   -0.5231    0.0000 C   0  0  0  0  0  0  0  0  0  0  0  0
   14.0339    0.7349    0.0000 C   0  0  0  0  0  0  0  0  0  0  0  0
   12.5360    0.6564    0.0000 C   0  0  0  0  0  0  0  0  0  0  0  0
   11.7190    1.9144    0.0000 C   0  0  0  0  0  0  0  0  0  0  0  0
   10.2211    1.8359    0.0000 C   0  0  0  0  0  0  0  0  0  0  0  0
    9.5401    0.4994    0.0000 N   0  0  0  0  0  0  0  0  0  0  0  0
    8.0422    0.4209    0.0000 C   0  0  0  0  0  0  0  0  0  0  0  0
    7.3612   -0.9157    0.0000 C   0  0  0  0  0  0  0  0  0  0  0  0
    5.8632   -0.9942    0.0000 C   0  0  0  0  0  0  0  0  0  0  0  0
    5.0463    0.2638    0.0000 C   0  0  0  0  0  0  0  0  0  0  0  0
    3.5483    0.1853    0.0000 N   0  0  0  0  0  0  0  0  0  0  0  0
    2.8674   -1.1512    0.0000 C   0  0  0  0  0  0  0  0  0  0  0  0
    3.5483   -2.4877    0.0000 N   0  0  0  0  0  0  0  0  0  0  0  0
    2.4877   -3.5483    0.0000 C   0  0  0  0  0  0  0  0  0  0  0  0
    2.7223   -5.0299    0.0000 O   0  0  0  0  0  0  0  0  0  0  0  0
    1.1512   -2.8674    0.0000 C   0  0  0  0  0  0  0  0  0  0  0  0
    1.3858   -1.3858    0.0000 C   0  0  0  0  0  0  0  0  0  0  0  0
    1.9598    0.0000    0.0000 C   0  0  0  0  0  0  0  0  0  0  0  0
    1.3858    1.3858    0.0000 C   0  0  0  0  0  0  0  0  0  0  0  0
    0.0000    1.9598    0.0000 C   0  0  0  0  0  0  0  0  0  0  0  0
   -1.3858    1.3858    0.0000 C   0  0  0  0  0  0  0  0  0  0  0  0
   -1.9598    0.0000    0.0000 C   0  0  0  0  0  0  0  0  0  0  0  0
   -1.3858   -1.3858    0.0000 C   0  0  0  0  0  0  0  0  0  0  0  0
   -0.0000   -1.9598    0.0000 C   0  0  0  0  0  0  0  0  0  0  0  0
    5.7273    1.6004    0.0000 C   0  0  0  0  0  0  0  0  0  0  0  0
    7.2252    1.6789    0.0000 C   0  0  0  0  0  0  0  0  0  0  0  0
    7.9062    3.0154    0.0000 C   0  0  0  0  0  0  0  0  0  0  0  0
    7.0892    4.2734    0.0000 O   0  0  0  0  0  0  0  0  0  0  0  0
    9.4041    3.0939    0.0000 N   0  0  0  0  0  0  0  0  0  0  0  0
   10.0851    4.4304    0.0000 C   0  0  0  0  0  0  0  0  0  0  0  0
   11.5831    4.5089    0.0000 C   0  0  0  0  0  0  0  0  0  0  0  0
   12.4000    3.2509    0.0000 C   0  0  0  0  0  0  0  0  0  0  0  0
   13.8980    3.3294    0.0000 C   0  0  0  0  0  0  0  0  0  0  0  0
   14.5790    4.6659    0.0000 C   0  0  0  0  0  0  0  0  0  0  0  0
   16.0769    4.7444    0.0000 C   0  0  0  0  0  0  0  0  0  0  0  0
   16.8939    3.4864    0.0000 C   0  0  0  0  0  0  0  0  0  0  0  0
   18.3918    3.5649    0.0000 C   0  0  0  0  0  0  0  0  0  0  0  0
   19.0728    4.9014    0.0000 C   0  0  0  0  0  0  0  0  0  0  0  0
   18.2558    6.1594    0.0000 C   0  0  0  0  0  0  0  0  0  0  0  0
   16.7579    6.0809    0.0000 C   0  0  0  0  0  0  0  0  0  0  0  0
   15.9409    7.3389    0.0000 C   0  0  0  0  0  0  0  0  0  0  0  0
   14.4430    7.4174    0.0000 N   0  0  0  0  0  0  0  0  0  0  0  0
   14.0548    8.8663    0.0000 N   0  0  0  0  0  0  0  0  0  0  0  0
   15.3128    9.6833    0.0000 N   0  0  0  0  0  0  0  0  0  0  0  0
   16.4785    8.7393    0.0000 N   0  0  0  0  0  0  0  0  0  0  0  0
   13.7620    5.9239    0.0000 C   0  0  0  0  0  0  0  0  0  0  0  0
   12.2641    5.8454    0.0000 C   0  0  0  0  0  0  0  0  0  0  0  0
  1  2  1  0
  2  3  1  0
  3  4  1  0
  4  5  1  0
  5  6  2  0
  6  7  1  0
  7  8  2  0
  8  9  1  0
  9 10  2  0
 10 11  1  0
 11 12  2  3
 12 13  1  0
 13 14  1  0
 14 15  2  0
 14 16  1  0
 16 17  1  0
 17 18  1  0
 18 19  1  0
 19 20  1  0
 20 21  1  0
 21 22  1  0
 22 23  1  0
 23 24  1  0
 10 25  1  0
 25 26  2  0
 26 27  1  0
 27 28  2  0
 27 29  1  0
 29 30  1  0
 30 31  1  0
 31 32  2  0
 32 33  1  0
 33 34  2  0
 34 35  1  0
 35 36  2  0
 36 37  1  0
 37 38  2  0
 38 39  1  0
 39 40  2  0
 40 41  1  0
 41 42  2  0
 42 43  1  0
 43 44  2  0
 44 45  1  0
 34 46  1  0
 46 47  2  0
 29  5  1  0
 47 31  1  0
 26  7  1  0
 40 35  1  0
 45 41  1  0
 17 12  1  0
 24 17  1  0
M  END
$$$$
