
     RDKit          2D

 31 34  0  0  0  0  0  0  0  0999 V2000
    7.7858    4.3542    0.0000 C   0  0  0  0  0  0  0  0  0  0  0  0
    8.0168    5.8363    0.0000 O   0  0  0  0  0  0  0  0  0  0  0  0
    6.8487    6.7774    0.0000 C   0  0  0  0  0  0  0  0  0  0  0  0
    5.4497    6.2363    0.0000 C   0  0  0  0  0  0  0  0  0  0  0  0
    4.2816    7.1774    0.0000 C   0  0  0  0  0  0  0  0  0  0  0  0
    2.8826    6.6364    0.0000 C   0  0  0  0  0  0  0  0  0  0  0  0
    2.6516    5.1543    0.0000 N   0  0  0  0  0  0  0  0  0  0  0  0
    1.3168    4.4699    0.0000 N   0  0  0  0  0  0  0  0  0  0  0  0
    1.3097    2.8632    0.0000 C   0  0  0  0  0  0  0  0  0  0  0  0
    2.2154    4.0589    0.0000 N   0  0  0  0  0  0  0  0  0  0  0  0
    3.7149    4.0962    0.0000 C   0  0  0  0  0  0  0  0  0  0  0  0
    4.6791    2.9472    0.0000 O   0  0  0  0  0  0  0  0  0  0  0  0
    4.3819    1.4769    0.0000 C   0  0  0  0  0  0  0  0  0  0  0  0
    5.5776    0.5712    0.0000 O   0  0  0  0  0  0  0  0  0  0  0  0
    3.0471    0.7926    0.0000 C   0  0  0  0  0  0  0  0  0  0  0  0
    1.6798    1.4095    0.0000 C   0  0  0  0  0  0  0  0  0  0  0  0
    2.1929    0.0000    0.0000 C   0  0  0  0  0  0  0  0  0  0  0  0
    1.6798   -1.4095    0.0000 C   0  0  0  0  0  0  0  0  0  0  0  0
    0.3808   -2.1595    0.0000 C   0  0  0  0  0  0  0  0  0  0  0  0
   -1.0964   -1.8991    0.0000 C   0  0  0  0  0  0  0  0  0  0  0  0
   -2.0606   -0.7500    0.0000 C   0  0  0  0  0  0  0  0  0  0  0  0
   -2.0606    0.7500    0.0000 C   0  0  0  0  0  0  0  0  0  0  0  0
   -1.0964    1.8991    0.0000 C   0  0  0  0  0  0  0  0  0  0  0  0
   -1.8464    3.1981    0.0000 C   0  0  0  0  0  0  0  0  0  0  0  0
   -1.0964    4.4971    0.0000 O   0  0  0  0  0  0  0  0  0  0  0  0
   -3.3464    3.1981    0.0000 O   0  0  0  0  0  0  0  0  0  0  0  0
    0.3808    2.1595    0.0000 C   0  0  0  0  0  0  0  0  0  0  0  0
    4.5126    8.6595    0.0000 C   0  0  0  0  0  0  0  0  0  0  0  0
    5.9116    9.2006    0.0000 C   0  0  0  0  0  0  0  0  0  0  0  0
    7.0797    8.2595    0.0000 C   0  0  0  0  0  0  0  0  0  0  0  0
    8.4787    8.8005    0.0000 O   0  0  0  0  0  0  0  0  0  0  0  0
  1  2  1  0
  2  3  1  0
  3  4  2  0
  4  5  1  0
  5  6  1  0
  6  7  1  0
  7  8  1  0
  8  9  2  0
  9 10  1  0
 10 11  2  0
 11 12  1  0
 12 13  1  0
 13 14  2  0
 13 15  1  0
 15 16  1  0
 16 17  1  0
 17 18  1  0
 18 19  1  0
 19 20  1  0
 20 21  1  0
 21 22  1  0
 22 23  1  0
 23 24  1  0
 24 25  2  0
 24 26  1  0
 23 27  1  0
  5 28  2  0
 28 29  1  0
 29 30  2  0
 30 31  1  0
 30  3  1  0
 11  7  1  0
 27 16  1  0
 16  9  1  0
M  END
$$$$
