
     RDKit          2D

 37 41  0  0  0  0  0  0  0  0999 V2000
    2.6443   -7.8797    0.0000 O   0  0  0  0  0  0  0  0  0  0  0  0
    1.8943   -9.1788    0.0000 C   0  0  0  0  0  0  0  0  0  0  0  0
    2.6443  -10.4778    0.0000 O   0  0  0  0  0  0  0  0  0  0  0  0
    0.3943   -9.1788    0.0000 C   0  0  0  0  0  0  0  0  0  0  0  0
   -0.3557  -10.4778    0.0000 C   0  0  0  0  0  0  0  0  0  0  0  0
   -1.8557  -10.4778    0.0000 C   0  0  0  0  0  0  0  0  0  0  0  0
   -2.6057   -9.1788    0.0000 C   0  0  0  0  0  0  0  0  0  0  0  0
   -1.8557   -7.8797    0.0000 C   0  0  0  0  0  0  0  0  0  0  0  0
   -0.3557   -7.8797    0.0000 C   0  0  0  0  0  0  0  0  0  0  0  0
    0.3943   -6.5807    0.0000 C   0  0  0  0  0  0  0  0  0  0  0  0
    1.8943   -6.5807    0.0000 C   0  0  0  0  0  0  0  0  0  0  0  0
    2.6443   -5.2817    0.0000 C   0  0  0  0  0  0  0  0  0  0  0  0
    1.8943   -3.9826    0.0000 C   0  0  0  0  0  0  0  0  0  0  0  0
    2.6443   -2.6836    0.0000 C   0  0  0  0  0  0  0  0  0  0  0  0
    1.8943   -1.3846    0.0000 N   0  0  0  0  0  0  0  0  0  0  0  0
    2.6443   -0.0855    0.0000 C   0  0  0  0  0  0  0  0  0  0  0  0
    4.1443   -0.0855    0.0000 O   0  0  0  0  0  0  0  0  0  0  0  0
    1.8943    1.2135    0.0000 C   0  0  0  0  0  0  0  0  0  0  0  0
    0.3943    1.2135    0.0000 C   0  0  0  0  0  0  0  0  0  0  0  0
    1.2760    0.0000    0.0000 C   0  0  0  0  0  0  0  0  0  0  0  0
    0.3943   -1.2135    0.0000 C   0  0  0  0  0  0  0  0  0  0  0  0
   -1.0323   -0.7500    0.0000 N   0  0  0  0  0  0  0  0  0  0  0  0
   -1.0323    0.7500    0.0000 C   0  0  0  0  0  0  0  0  0  0  0  0
   -2.2458    1.6317    0.0000 C   0  0  0  0  0  0  0  0  0  0  0  0
   -2.0890    3.1235    0.0000 C   0  0  0  0  0  0  0  0  0  0  0  0
   -3.3025    4.0051    0.0000 C   0  0  0  0  0  0  0  0  0  0  0  0
   -3.1458    5.4969    0.0000 C   0  0  0  0  0  0  0  0  0  0  0  0
   -1.7754    6.1070    0.0000 C   0  0  0  0  0  0  0  0  0  0  0  0
   -1.6186    7.5988    0.0000 C   0  0  0  0  0  0  0  0  0  0  0  0
   -2.8322    8.4805    0.0000 C   0  0  0  0  0  0  0  0  0  0  0  0
   -4.2025    7.8704    0.0000 C   0  0  0  0  0  0  0  0  0  0  0  0
   -4.3593    6.3786    0.0000 C   0  0  0  0  0  0  0  0  0  0  0  0
   -3.6161    1.0216    0.0000 C   0  0  0  0  0  0  0  0  0  0  0  0
   -3.7729   -0.4702    0.0000 O   0  0  0  0  0  0  0  0  0  0  0  0
   -4.8297    1.9033    0.0000 O   0  0  0  0  0  0  0  0  0  0  0  0
    0.3943   -3.9826    0.0000 C   0  0  0  0  0  0  0  0  0  0  0  0
   -0.3557   -5.2817    0.0000 C   0  0  0  0  0  0  0  0  0  0  0  0
  1  2  2  0
  2  3  1  0
  2  4  1  0
  4  5  2  0
  5  6  1  0
  6  7  2  0
  7  8  1  0
  8  9  2  0
  9 10  1  0
 10 11  2  0
 11 12  1  0
 12 13  2  0
 13 14  1  0
 14 15  1  0
 15 16  1  0
 16 17  2  0
 16 18  1  0
 18 19  2  0
 19 20  1  0
 20 21  1  0
 21 22  2  0
 22 23  1  0
 23 24  2  3
 24 25  1  0
 25 26  1  0
 26 27  1  0
 27 28  2  0
 28 29  1  0
 29 30  2  0
 30 31  1  0
 31 32  2  0
 24 33  1  0
 33 34  2  0
 33 35  1  0
 13 36  1  0
 36 37  2  0
  9  4  1  0
 37 10  1  0
 21 15  1  0
 32 27  1  0
 23 19  1  0
M  END
$$$$
