
     RDKit          2D

 49 53  0  0  0  0  0  0  0  0999 V2000
    5.2044  -11.9794    0.0000 C   0  0  0  0  0  0  0  0  0  0  0  0
    5.8145  -10.6091    0.0000 C   0  0  0  0  0  0  0  0  0  0  0  0
    4.9328   -9.3955    0.0000 C   0  0  0  0  0  0  0  0  0  0  0  0
    5.5429   -8.0252    0.0000 O   0  0  0  0  0  0  0  0  0  0  0  0
    4.6612   -6.8117    0.0000 C   0  0  0  0  0  0  0  0  0  0  0  0
    3.1694   -6.9685    0.0000 O   0  0  0  0  0  0  0  0  0  0  0  0
    5.2713   -5.4414    0.0000 O   0  0  0  0  0  0  0  0  0  0  0  0
    4.3896   -4.2278    0.0000 N   0  0  0  0  0  0  0  0  0  0  0  0
    2.8896   -4.2278    0.0000 N   0  0  0  0  0  0  0  0  0  0  0  0
    2.4261   -2.8013    0.0000 C   0  0  0  0  0  0  0  0  0  0  0  0
    0.9995   -2.3377    0.0000 C   0  0  0  0  0  0  0  0  0  0  0  0
    0.6877   -0.8705    0.0000 C   0  0  0  0  0  0  0  0  0  0  0  0
    3.6396   -1.9196    0.0000 N   0  0  0  0  0  0  0  0  0  0  0  0
    4.8532   -2.8013    0.0000 C   0  0  0  0  0  0  0  0  0  0  0  0
    6.2798   -2.3377    0.0000 C   0  0  0  0  0  0  0  0  0  0  0  0
    7.3945   -3.3414    0.0000 C   0  0  0  0  0  0  0  0  0  0  0  0
    8.8211   -2.8779    0.0000 C   0  0  0  0  0  0  0  0  0  0  0  0
    9.1329   -1.4107    0.0000 C   0  0  0  0  0  0  0  0  0  0  0  0
    8.0182   -0.4070    0.0000 C   0  0  0  0  0  0  0  0  0  0  0  0
    6.5916   -0.8705    0.0000 C   0  0  0  0  0  0  0  0  0  0  0  0
    5.4769    0.1332    0.0000 C   0  0  0  0  0  0  0  0  0  0  0  0
    5.7888    1.6004    0.0000 C   0  0  0  0  0  0  0  0  0  0  0  0
    4.6741    2.6041    0.0000 C   0  0  0  0  0  0  0  0  0  0  0  0
    3.2475    2.1406    0.0000 C   0  0  0  0  0  0  0  0  0  0  0  0
    2.1328    3.1443    0.0000 C   0  0  0  0  0  0  0  0  0  0  0  0
    2.4446    4.6115    0.0000 N   0  0  0  0  0  0  0  0  0  0  0  0
    3.8712    5.0750    0.0000 C   0  0  0  0  0  0  0  0  0  0  0  0
    4.9859    4.0713    0.0000 O   0  0  0  0  0  0  0  0  0  0  0  0
    4.1831    6.5422    0.0000 N   0  0  0  0  0  0  0  0  0  0  0  0
    5.6097    7.0058    0.0000 C   0  0  0  0  0  0  0  0  0  0  0  0
    6.7244    6.0021    0.0000 C   0  0  0  0  0  0  0  0  0  0  0  0
    8.1510    6.4656    0.0000 C   0  0  0  0  0  0  0  0  0  0  0  0
    9.2657    5.4619    0.0000 C   0  0  0  0  0  0  0  0  0  0  0  0
   10.6923    5.9254    0.0000 C   0  0  0  0  0  0  0  0  0  0  0  0
    8.4628    7.9328    0.0000 C   0  0  0  0  0  0  0  0  0  0  0  0
    9.8894    8.3963    0.0000 C   0  0  0  0  0  0  0  0  0  0  0  0
    3.0684    7.5459    0.0000 C   0  0  0  0  0  0  0  0  0  0  0  0
    3.3802    9.0132    0.0000 O   0  0  0  0  0  0  0  0  0  0  0  0
    1.6418    7.0824    0.0000 C   0  0  0  0  0  0  0  0  0  0  0  0
    1.3299    5.6152    0.0000 C   0  0  0  0  0  0  0  0  0  0  0  0
   -0.1619    5.4584    0.0000 S   0  0  0  0  0  0  0  0  0  0  0  0
   -0.7720    6.8287    0.0000 C   0  0  0  0  0  0  0  0  0  0  0  0
   -2.2392    7.1406    0.0000 C   0  0  0  0  0  0  0  0  0  0  0  0
   -2.7027    8.5672    0.0000 C   0  0  0  0  0  0  0  0  0  0  0  0
    0.3427    7.8324    0.0000 C   0  0  0  0  0  0  0  0  0  0  0  0
    2.9356    0.6734    0.0000 C   0  0  0  0  0  0  0  0  0  0  0  0
    1.5090    0.2098    0.0000 C   0  0  0  0  0  0  0  0  0  0  0  0
    0.3943    1.2135    0.0000 N   0  0  0  0  0  0  0  0  0  0  0  0
    4.0503   -0.3303    0.0000 C   0  0  0  0  0  0  0  0  0  0  0  0
  1  2  1  0
  2  3  1  0
  3  4  1  0
  4  5  1  0
  5  6  2  0
  5  7  1  0
  7  8  1  0
  8  9  1  0
  9 10  2  0
 10 11  1  0
 11 12  1  0
 10 13  1  0
 13 14  2  0
 14 15  1  0
 15 16  2  0
 16 17  1  0
 17 18  2  0
 18 19  1  0
 19 20  2  0
 20 21  1  0
 21 22  2  0
 22 23  1  0
 23 24  2  0
 24 25  1  0
 25 26  1  0
 26 27  1  0
 27 28  2  0
 27 29  1  0
 29 30  1  0
 30 31  1  0
 31 32  2  0
 32 33  1  0
 33 34  1  0
 32 35  1  0
 35 36  1  0
 29 37  1  0
 37 38  2  0
 37 39  1  0
 39 40  2  0
 40 41  1  0
 41 42  1  0
 42 43  1  0
 43 44  1  0
 42 45  2  0
 24 46  1  0
 46 47  1  0
 47 48  1  0
 46 49  2  0
 14  8  1  0
 20 15  1  0
 49 21  1  0
 40 26  1  0
 45 39  1  0
M  END
$$$$
