
     RDKit          2D

 59 64  0  0  0  0  0  0  0  0999 V2000
    3.6929    0.0000    0.0000 O   0  0  0  0  0  0  0  0  0  0  0  0
    2.1929    0.0000    0.0000 C   0  0  0  0  0  0  0  0  0  0  0  0
    1.6798    1.4095    0.0000 C   0  0  0  0  0  0  0  0  0  0  0  0
    0.3808    2.1595    0.0000 C   0  0  0  0  0  0  0  0  0  0  0  0
   -1.0964    1.8991    0.0000 C   0  0  0  0  0  0  0  0  0  0  0  0
   -2.0606    0.7500    0.0000 C   0  0  0  0  0  0  0  0  0  0  0  0
   -2.0606   -0.7500    0.0000 C   0  0  0  0  0  0  0  0  0  0  0  0
   -1.0964   -1.8991    0.0000 C   0  0  0  0  0  0  0  0  0  0  0  0
    0.3808   -2.1595    0.0000 C   0  0  0  0  0  0  0  0  0  0  0  0
   -0.2924   -3.5000    0.0000 C   0  0  0  0  0  0  0  0  0  0  0  0
    0.5318   -4.7532    0.0000 O   0  0  0  0  0  0  0  0  0  0  0  0
   -1.7899   -3.5872    0.0000 C   0  0  0  0  0  0  0  0  0  0  0  0
   -2.6141   -2.3340    0.0000 C   0  0  0  0  0  0  0  0  0  0  0  0
   -4.1116   -2.4212    0.0000 C   0  0  0  0  0  0  0  0  0  0  0  0
   -4.9359   -1.1680    0.0000 O   0  0  0  0  0  0  0  0  0  0  0  0
   -6.4333   -1.2552    0.0000 O   0  0  0  0  0  0  0  0  0  0  0  0
   -7.2576   -0.0019    0.0000 O   0  0  0  0  0  0  0  0  0  0  0  0
   -8.7551   -0.0892    0.0000 C   0  0  0  0  0  0  0  0  0  0  0  0
   -9.4283   -1.4296    0.0000 O   0  0  0  0  0  0  0  0  0  0  0  0
   -9.5793    1.1641    0.0000 O   0  0  0  0  0  0  0  0  0  0  0  0
   -4.7848   -3.7616    0.0000 C   0  0  0  0  0  0  0  0  0  0  0  0
   -3.9605   -5.0149    0.0000 C   0  0  0  0  0  0  0  0  0  0  0  0
   -2.4631   -4.9277    0.0000 C   0  0  0  0  0  0  0  0  0  0  0  0
   -1.6388   -6.1809    0.0000 O   0  0  0  0  0  0  0  0  0  0  0  0
   -2.3120   -7.5213    0.0000 O   0  0  0  0  0  0  0  0  0  0  0  0
   -1.4877   -8.7746    0.0000 O   0  0  0  0  0  0  0  0  0  0  0  0
   -2.1609  -10.1150    0.0000 O   0  0  0  0  0  0  0  0  0  0  0  0
   -1.3367  -11.3682    0.0000 O   0  0  0  0  0  0  0  0  0  0  0  0
   -2.0099  -12.7087    0.0000 O   0  0  0  0  0  0  0  0  0  0  0  0
   -1.1856  -13.9619    0.0000 O   0  0  0  0  0  0  0  0  0  0  0  0
   -1.8588  -15.3024    0.0000 C   0  0  0  0  0  0  0  0  0  0  0  0
   -3.3563  -15.3896    0.0000 C   0  0  0  0  0  0  0  0  0  0  0  0
   -4.0295  -16.7300    0.0000 C   0  0  0  0  0  0  0  0  0  0  0  0
   -3.2052  -17.9833    0.0000 C   0  0  0  0  0  0  0  0  0  0  0  0
   -1.7078  -17.8961    0.0000 C   0  0  0  0  0  0  0  0  0  0  0  0
   -1.0346  -16.5556    0.0000 C   0  0  0  0  0  0  0  0  0  0  0  0
    1.4718   -3.1889    0.0000 C   0  0  0  0  0  0  0  0  0  0  0  0
    2.9314   -3.5348    0.0000 N   0  0  0  0  0  0  0  0  0  0  0  0
    1.9021   -4.6259    0.0000 N   0  0  0  0  0  0  0  0  0  0  0  0
    1.5561   -6.0855    0.0000 C   0  0  0  0  0  0  0  0  0  0  0  0
    0.1191   -6.5157    0.0000 C   0  0  0  0  0  0  0  0  0  0  0  0
   -0.2268   -7.9752    0.0000 C   0  0  0  0  0  0  0  0  0  0  0  0
    0.8643   -9.0046    0.0000 C   0  0  0  0  0  0  0  0  0  0  0  0
    0.5184  -10.4642    0.0000 O   0  0  0  0  0  0  0  0  0  0  0  0
    1.6094  -11.4935    0.0000 O   0  0  0  0  0  0  0  0  0  0  0  0
    1.2635  -12.9531    0.0000 O   0  0  0  0  0  0  0  0  0  0  0  0
    2.3546  -13.9824    0.0000 O   0  0  0  0  0  0  0  0  0  0  0  0
    2.0086  -15.4420    0.0000 O   0  0  0  0  0  0  0  0  0  0  0  0
    3.0997  -16.4714    0.0000 O   0  0  0  0  0  0  0  0  0  0  0  0
    2.7538  -17.9309    0.0000 O   0  0  0  0  0  0  0  0  0  0  0  0
    3.8448  -18.9603    0.0000 C   0  0  0  0  0  0  0  0  0  0  0  0
    5.2818  -18.5301    0.0000 C   0  0  0  0  0  0  0  0  0  0  0  0
    6.3729  -19.5595    0.0000 C   0  0  0  0  0  0  0  0  0  0  0  0
    6.0269  -21.0190    0.0000 C   0  0  0  0  0  0  0  0  0  0  0  0
    4.5900  -21.4492    0.0000 C   0  0  0  0  0  0  0  0  0  0  0  0
    3.4989  -20.4199    0.0000 C   0  0  0  0  0  0  0  0  0  0  0  0
    2.3013   -8.5744    0.0000 C   0  0  0  0  0  0  0  0  0  0  0  0
    2.6472   -7.1148    0.0000 C   0  0  0  0  0  0  0  0  0  0  0  0
    1.6798   -1.4095    0.0000 C   0  0  0  0  0  0  0  0  0  0  0  0
  1  2  2  0
  2  3  1  0
  3  4  1  0
  4  5  1  0
  5  6  1  0
  6  7  1  0
  7  8  1  0
  8  9  1  0
  9 10  1  0
 10 11  2  0
 10 12  1  0
 12 13  2  0
 13 14  1  0
 14 15  1  0
 15 16  1  0
 16 17  1  0
 17 18  1  0
 18 19  2  0
 18 20  1  0
 14 21  2  0
 21 22  1  0
 22 23  2  0
 23 24  1  0
 24 25  1  0
 25 26  1  0
 26 27  1  0
 27 28  1  0
 28 29  1  0
 29 30  1  0
 30 31  1  0
 31 32  2  0
 32 33  1  0
 33 34  2  0
 34 35  1  0
 35 36  2  0
  9 37  1  0
 37 38  2  0
 38 39  1  0
 39 40  1  0
 40 41  2  0
 41 42  1  0
 42 43  2  0
 43 44  1  0
 44 45  1  0
 45 46  1  0
 46 47  1  0
 47 48  1  0
 48 49  1  0
 49 50  1  0
 50 51  1  0
 51 52  2  0
 52 53  1  0
 53 54  2  0
 54 55  1  0
 55 56  2  0
 43 57  1  0
 57 58  2  0
  9 59  1  0
 59  2  1  0
 23 12  1  0
 36 31  1  0
 39 37  1  0
 58 40  1  0
 56 51  1  0
M  END
$$$$
