
     RDKit          2D

 41 46  0  0  0  0  0  0  0  0999 V2000
    3.5260   -1.2990    0.0000 C   0  0  0  0  0  0  0  0  0  0  0  0
    2.7760    0.0000    0.0000 C   0  0  0  0  0  0  0  0  0  0  0  0
    1.2760    0.0000    0.0000 C   0  0  0  0  0  0  0  0  0  0  0  0
    0.3943    1.2135    0.0000 C   0  0  0  0  0  0  0  0  0  0  0  0
   -0.1869    2.7713    0.0000 C   0  0  0  0  0  0  0  0  0  0  0  0
    0.6948    3.9848    0.0000 C   0  0  0  0  0  0  0  0  0  0  0  0
    2.1866    3.8280    0.0000 C   0  0  0  0  0  0  0  0  0  0  0  0
   -1.6455    3.1214    0.0000 N   0  0  0  0  0  0  0  0  0  0  0  0
   -1.8801    4.6030    0.0000 C   0  0  0  0  0  0  0  0  0  0  0  0
   -0.7144    5.5469    0.0000 C   0  0  0  0  0  0  0  0  0  0  0  0
    0.6860    5.0094    0.0000 C   0  0  0  0  0  0  0  0  0  0  0  0
    1.8517    5.9534    0.0000 C   0  0  0  0  0  0  0  0  0  0  0  0
    1.6170    7.4349    0.0000 C   0  0  0  0  0  0  0  0  0  0  0  0
    0.2167    7.9725    0.0000 C   0  0  0  0  0  0  0  0  0  0  0  0
   -0.9490    7.0285    0.0000 C   0  0  0  0  0  0  0  0  0  0  0  0
   -2.9244    2.3377    0.0000 C   0  0  0  0  0  0  0  0  0  0  0  0
   -4.1379    3.2194    0.0000 O   0  0  0  0  0  0  0  0  0  0  0  0
   -3.2746    0.8791    0.0000 C   0  0  0  0  0  0  0  0  0  0  0  0
   -2.4908   -0.3998    0.0000 C   0  0  0  0  0  0  0  0  0  0  0  0
   -3.3725   -1.6134    0.0000 C   0  0  0  0  0  0  0  0  0  0  0  0
   -1.0323   -0.7500    0.0000 C   0  0  0  0  0  0  0  0  0  0  0  0
    0.3943   -1.2135    0.0000 N   0  0  0  0  0  0  0  0  0  0  0  0
   -1.0323    0.7500    0.0000 N   0  0  0  0  0  0  0  0  0  0  0  0
   -2.2458    1.6317    0.0000 C   0  0  0  0  0  0  0  0  0  0  0  0
   -3.6161    1.0216    0.0000 C   0  0  0  0  0  0  0  0  0  0  0  0
   -4.8297    1.9033    0.0000 C   0  0  0  0  0  0  0  0  0  0  0  0
   -6.2000    1.2931    0.0000 C   0  0  0  0  0  0  0  0  0  0  0  0
   -6.3568   -0.1986    0.0000 C   0  0  0  0  0  0  0  0  0  0  0  0
   -7.7271   -0.8087    0.0000 C   0  0  0  0  0  0  0  0  0  0  0  0
   -8.9406    0.0729    0.0000 C   0  0  0  0  0  0  0  0  0  0  0  0
  -10.3109   -0.5372    0.0000 C   0  0  0  0  0  0  0  0  0  0  0  0
  -10.4677   -2.0290    0.0000 C   0  0  0  0  0  0  0  0  0  0  0  0
   -9.2542   -2.9106    0.0000 C   0  0  0  0  0  0  0  0  0  0  0  0
   -7.8839   -2.3005    0.0000 C   0  0  0  0  0  0  0  0  0  0  0  0
   -6.6704   -3.1822    0.0000 C   0  0  0  0  0  0  0  0  0  0  0  0
   -5.2438   -2.7187    0.0000 N   0  0  0  0  0  0  0  0  0  0  0  0
   -4.3621   -3.9322    0.0000 N   0  0  0  0  0  0  0  0  0  0  0  0
   -5.2438   -5.1457    0.0000 N   0  0  0  0  0  0  0  0  0  0  0  0
   -6.6704   -4.6822    0.0000 N   0  0  0  0  0  0  0  0  0  0  0  0
   -5.1432   -1.0803    0.0000 C   0  0  0  0  0  0  0  0  0  0  0  0
   -3.7729   -0.4702    0.0000 C   0  0  0  0  0  0  0  0  0  0  0  0
  1  2  1  0
  2  3  1  0
  3  4  2  0
  4  5  1  0
  5  6  1  0
  6  7  1  0
  5  8  1  0
  8  9  1  0
  9 10  1  0
 10 11  2  0
 11 12  1  0
 12 13  2  0
 13 14  1  0
 14 15  2  0
  8 16  1  0
 16 17  2  0
 16 18  1  0
 18 19  1  0
 19 20  1  0
 19 21  1  0
 21 22  2  0
 21 23  1  0
 23 24  1  0
 24 25  1  0
 25 26  2  0
 26 27  1  0
 27 28  2  0
 28 29  1  0
 29 30  2  0
 30 31  1  0
 31 32  2  0
 32 33  1  0
 33 34  2  0
 34 35  1  0
 35 36  2  0
 36 37  1  0
 37 38  2  0
 38 39  1  0
 28 40  1  0
 40 41  2  0
 22  3  1  0
 41 25  1  0
 23  4  1  0
 34 29  1  0
 39 35  1  0
 15 10  1  0
M  END
$$$$
