
     RDKit          2D

 49 52  0  0  0  0  0  0  0  0999 V2000
    2.6850   -9.1540    0.0000 C   0  0  0  0  0  0  0  0  0  0  0  0
    1.3147   -9.7641    0.0000 C   0  0  0  0  0  0  0  0  0  0  0  0
    0.1012   -8.8824    0.0000 C   0  0  0  0  0  0  0  0  0  0  0  0
   -1.2692   -9.4926    0.0000 C   0  0  0  0  0  0  0  0  0  0  0  0
   -2.5682   -8.7426    0.0000 N   0  0  0  0  0  0  0  0  0  0  0  0
   -3.6829   -9.7462    0.0000 C   0  0  0  0  0  0  0  0  0  0  0  0
   -5.1501   -9.4344    0.0000 C   0  0  0  0  0  0  0  0  0  0  0  0
   -5.6137   -8.0078    0.0000 C   0  0  0  0  0  0  0  0  0  0  0  0
   -3.0728  -11.1166    0.0000 C   0  0  0  0  0  0  0  0  0  0  0  0
   -3.8228  -12.4156    0.0000 C   0  0  0  0  0  0  0  0  0  0  0  0
   -3.4094  -13.8575    0.0000 O   0  0  0  0  0  0  0  0  0  0  0  0
   -5.3228  -12.4156    0.0000 O   0  0  0  0  0  0  0  0  0  0  0  0
   -6.0728  -13.7146    0.0000 C   0  0  0  0  0  0  0  0  0  0  0  0
   -7.5728  -13.7146    0.0000 C   0  0  0  0  0  0  0  0  0  0  0  0
   -8.3228  -15.0137    0.0000 C   0  0  0  0  0  0  0  0  0  0  0  0
   -9.8228  -15.0137    0.0000 S   0  0  0  0  0  0  0  0  0  0  0  0
  -10.5728  -16.3127    0.0000 C   0  0  0  0  0  0  0  0  0  0  0  0
  -12.0728  -16.3127    0.0000 C   0  0  0  0  0  0  0  0  0  0  0  0
  -12.8228  -17.6118    0.0000 C   0  0  0  0  0  0  0  0  0  0  0  0
  -12.0728  -18.9108    0.0000 C   0  0  0  0  0  0  0  0  0  0  0  0
  -10.5728  -18.9108    0.0000 C   0  0  0  0  0  0  0  0  0  0  0  0
   -9.8228  -17.6118    0.0000 C   0  0  0  0  0  0  0  0  0  0  0  0
   -1.5810  -10.9598    0.0000 N   0  0  0  0  0  0  0  0  0  0  0  0
   -0.5773  -12.0745    0.0000 C   0  0  0  0  0  0  0  0  0  0  0  0
   -1.0409  -13.5011    0.0000 C   0  0  0  0  0  0  0  0  0  0  0  0
   -2.5081  -13.8129    0.0000 C   0  0  0  0  0  0  0  0  0  0  0  0
   -2.9716  -15.2395    0.0000 C   0  0  0  0  0  0  0  0  0  0  0  0
   -1.9679  -16.3542    0.0000 C   0  0  0  0  0  0  0  0  0  0  0  0
   -2.4314  -17.7808    0.0000 C   0  0  0  0  0  0  0  0  0  0  0  0
   -3.8986  -18.0927    0.0000 C   0  0  0  0  0  0  0  0  0  0  0  0
   -4.3622  -19.5193    0.0000 C   0  0  0  0  0  0  0  0  0  0  0  0
   -3.3585  -20.6340    0.0000 C   0  0  0  0  0  0  0  0  0  0  0  0
   -1.8913  -20.3221    0.0000 C   0  0  0  0  0  0  0  0  0  0  0  0
   -1.4277  -18.8955    0.0000 C   0  0  0  0  0  0  0  0  0  0  0  0
    0.0395  -18.5837    0.0000 S   0  0  0  0  0  0  0  0  0  0  0  0
    0.3514  -20.0509    0.0000 O   0  0  0  0  0  0  0  0  0  0  0  0
   -0.2724  -17.1165    0.0000 O   0  0  0  0  0  0  0  0  0  0  0  0
    1.5067  -18.2718    0.0000 N   0  0  0  0  0  0  0  0  0  0  0  0
    2.5104  -19.3865    0.0000 C   0  0  0  0  0  0  0  0  0  0  0  0
    2.0469  -20.8131    0.0000 O   0  0  0  0  0  0  0  0  0  0  0  0
    3.9776  -19.0747    0.0000 O   0  0  0  0  0  0  0  0  0  0  0  0
    4.9813  -20.1894    0.0000 C   0  0  0  0  0  0  0  0  0  0  0  0
    6.4485  -19.8775    0.0000 C   0  0  0  0  0  0  0  0  0  0  0  0
    7.4522  -20.9922    0.0000 C   0  0  0  0  0  0  0  0  0  0  0  0
    8.9195  -20.6804    0.0000 C   0  0  0  0  0  0  0  0  0  0  0  0
    6.9887  -22.4188    0.0000 C   0  0  0  0  0  0  0  0  0  0  0  0
   -0.5007  -16.0424    0.0000 C   0  0  0  0  0  0  0  0  0  0  0  0
   -0.0372  -14.6158    0.0000 C   0  0  0  0  0  0  0  0  0  0  0  0
    1.4301  -14.3039    0.0000 F   0  0  0  0  0  0  0  0  0  0  0  0
  1  2  1  0
  2  3  1  0
  3  4  1  0
  4  5  2  0
  5  6  1  0
  6  7  1  0
  7  8  1  0
  6  9  2  0
  9 10  1  0
 10 11  2  0
 10 12  1  0
 12 13  1  0
 13 14  1  0
 14 15  1  0
 15 16  1  0
 16 17  1  0
 17 18  2  0
 18 19  1  0
 19 20  2  0
 20 21  1  0
 21 22  2  0
  9 23  1  0
 23 24  1  0
 24 25  1  0
 25 26  2  0
 26 27  1  0
 27 28  2  0
 28 29  1  0
 29 30  2  0
 30 31  1  0
 31 32  2  0
 32 33  1  0
 33 34  2  0
 34 35  1  0
 35 36  2  0
 35 37  2  0
 35 38  1  0
 38 39  1  0
 39 40  2  0
 39 41  1  0
 41 42  1  0
 42 43  1  0
 43 44  1  0
 44 45  1  0
 44 46  1  0
 28 47  1  0
 47 48  2  0
 48 49  1  0
 23  4  1  0
 48 25  1  0
 22 17  1  0
 34 29  1  0
M  END
$$$$
