
     RDKit          2D

 52 57  0  0  0  0  0  0  0  0999 V2000
    9.0252    5.4418    0.0000 C   0  0  0  0  0  0  0  0  0  0  0  0
    7.6240    5.9772    0.0000 C   0  0  0  0  0  0  0  0  0  0  0  0
    6.4598    5.0313    0.0000 C   0  0  0  0  0  0  0  0  0  0  0  0
    5.0585    5.5667    0.0000 N   0  0  0  0  0  0  0  0  0  0  0  0
    3.8943    4.6208    0.0000 C   0  0  0  0  0  0  0  0  0  0  0  0
    2.6073    5.3913    0.0000 C   0  0  0  0  0  0  0  0  0  0  0  0
    1.1262    5.1543    0.0000 C   0  0  0  0  0  0  0  0  0  0  0  0
    0.3969    6.4651    0.0000 O   0  0  0  0  0  0  0  0  0  0  0  0
    0.1439    4.0207    0.0000 N   0  0  0  0  0  0  0  0  0  0  0  0
   -1.2573    4.5560    0.0000 C   0  0  0  0  0  0  0  0  0  0  0  0
   -1.4943    6.0372    0.0000 C   0  0  0  0  0  0  0  0  0  0  0  0
   -2.8956    6.5725    0.0000 C   0  0  0  0  0  0  0  0  0  0  0  0
   -4.0598    5.6267    0.0000 C   0  0  0  0  0  0  0  0  0  0  0  0
   -5.4610    6.1620    0.0000 C   0  0  0  0  0  0  0  0  0  0  0  0
   -5.6980    7.6432    0.0000 N   0  0  0  0  0  0  0  0  0  0  0  0
   -4.6390    8.7055    0.0000 C   0  0  0  0  0  0  0  0  0  0  0  0
   -3.1571    8.4732    0.0000 C   0  0  0  0  0  0  0  0  0  0  0  0
   -2.2150    9.6404    0.0000 C   0  0  0  0  0  0  0  0  0  0  0  0
   -5.3221   10.0410    0.0000 N   0  0  0  0  0  0  0  0  0  0  0  0
   -6.8033    9.8040    0.0000 C   0  0  0  0  0  0  0  0  0  0  0  0
   -7.9705   10.7461    0.0000 C   0  0  0  0  0  0  0  0  0  0  0  0
   -7.7382   12.2280    0.0000 C   0  0  0  0  0  0  0  0  0  0  0  0
   -9.3700   10.2063    0.0000 C   0  0  0  0  0  0  0  0  0  0  0  0
   -9.6023    8.7244    0.0000 C   0  0  0  0  0  0  0  0  0  0  0  0
  -11.0018    8.1846    0.0000 C   0  0  0  0  0  0  0  0  0  0  0  0
   -8.4351    7.7823    0.0000 N   0  0  0  0  0  0  0  0  0  0  0  0
   -7.0356    8.3221    0.0000 C   0  0  0  0  0  0  0  0  0  0  0  0
   -3.8228    4.1455    0.0000 C   0  0  0  0  0  0  0  0  0  0  0  0
   -2.4216    3.6102    0.0000 C   0  0  0  0  0  0  0  0  0  0  0  0
    0.1201    2.5209    0.0000 C   0  0  0  0  0  0  0  0  0  0  0  0
    1.5126    3.0784    0.0000 C   0  0  0  0  0  0  0  0  0  0  0  0
    1.7356    4.5617    0.0000 O   0  0  0  0  0  0  0  0  0  0  0  0
    2.9855    2.7945    0.0000 N   0  0  0  0  0  0  0  0  0  0  0  0
    4.0711    1.7594    0.0000 C   0  0  0  0  0  0  0  0  0  0  0  0
    4.3849    3.2033    0.0000 N   0  0  0  0  0  0  0  0  0  0  0  0
    4.4248    0.3017    0.0000 C   0  0  0  0  0  0  0  0  0  0  0  0
    5.9231    0.2303    0.0000 N   0  0  0  0  0  0  0  0  0  0  0  0
    6.6104   -1.1029    0.0000 C   0  0  0  0  0  0  0  0  0  0  0  0
    8.1087   -1.1743    0.0000 O   0  0  0  0  0  0  0  0  0  0  0  0
    5.7994   -2.3648    0.0000 O   0  0  0  0  0  0  0  0  0  0  0  0
    6.4868   -3.6981    0.0000 C   0  0  0  0  0  0  0  0  0  0  0  0
    7.9851   -3.7694    0.0000 O   0  0  0  0  0  0  0  0  0  0  0  0
    5.6758   -4.9600    0.0000 O   0  0  0  0  0  0  0  0  0  0  0  0
    3.9342   -1.1158    0.0000 C   0  0  0  0  0  0  0  0  0  0  0  0
    2.7551   -2.0431    0.0000 N   0  0  0  0  0  0  0  0  0  0  0  0
    0.7500   -1.2990    0.0000 C   0  0  0  0  0  0  0  0  0  0  0  0
    1.5000    0.0000    0.0000 C   0  0  0  0  0  0  0  0  0  0  0  0
    0.7500    1.2990    0.0000 C   0  0  0  0  0  0  0  0  0  0  0  0
   -0.7500    1.2990    0.0000 C   0  0  0  0  0  0  0  0  0  0  0  0
   -1.5000    0.0000    0.0000 C   0  0  0  0  0  0  0  0  0  0  0  0
   -0.7500   -1.2990    0.0000 C   0  0  0  0  0  0  0  0  0  0  0  0
   -1.5000   -2.5981    0.0000 C   0  0  0  0  0  0  0  0  0  0  0  0
  1  2  2  0
  2  3  1  0
  3  4  1  0
  4  5  1  0
  5  6  2  3
  6  7  1  0
  7  8  2  0
  7  9  1  0
  9 10  1  0
 10 11  2  0
 11 12  1  0
 12 13  2  0
 13 14  1  0
 14 15  1  0
 15 16  1  0
 16 17  1  0
 17 18  1  0
 16 19  2  0
 19 20  1  0
 20 21  2  0
 21 22  1  0
 21 23  1  0
 23 24  2  0
 24 25  1  0
 24 26  1  0
 26 27  2  0
 13 28  1  0
 28 29  2  0
  9 30  1  0
 30 31  1  0
 31 32  2  0
 31 33  1  0
 33 34  2  3
 34 35  1  0
 34 36  1  0
 36 37  1  0
 37 38  2  3
 38 39  1  0
 38 40  1  0
 40 41  1  0
 41 42  2  0
 41 43  1  0
 36 44  2  0
 44 45  2  0
 45 46  1  0
 46 47  2  0
 47 48  1  0
 48 49  2  0
 49 50  1  0
 50 51  2  0
 51 52  1  0
 35  5  1  0
 51 46  1  0
 29 10  1  0
 49 30  1  0
 27 15  1  0
 27 20  1  0
M  END
$$$$
