
     RDKit          2D

 46 53  0  0  0  0  0  0  0  0999 V2000
   12.6017   -6.6637    0.0000 C   0  0  0  0  0  0  0  0  0  0  0  0
   12.4896   -5.1679    0.0000 C   0  0  0  0  0  0  0  0  0  0  0  0
   11.1382   -4.5170    0.0000 C   0  0  0  0  0  0  0  0  0  0  0  0
   11.0261   -3.0212    0.0000 C   0  0  0  0  0  0  0  0  0  0  0  0
    9.6746   -2.3704    0.0000 C   0  0  0  0  0  0  0  0  0  0  0  0
    8.4353   -3.2154    0.0000 N   0  0  0  0  0  0  0  0  0  0  0  0
    7.0838   -2.5645    0.0000 C   0  0  0  0  0  0  0  0  0  0  0  0
    5.8444   -3.4095    0.0000 C   0  0  0  0  0  0  0  0  0  0  0  0
    4.4930   -2.7587    0.0000 C   0  0  0  0  0  0  0  0  0  0  0  0
    4.3809   -1.2629    0.0000 C   0  0  0  0  0  0  0  0  0  0  0  0
    3.0294   -0.6121    0.0000 C   0  0  0  0  0  0  0  0  0  0  0  0
    3.0294    0.8879    0.0000 O   0  0  0  0  0  0  0  0  0  0  0  0
    1.8567    1.8232    0.0000 N   0  0  0  0  0  0  0  0  0  0  0  0
    0.3943    1.2135    0.0000 C   0  0  0  0  0  0  0  0  0  0  0  0
    1.2760    0.0000    0.0000 C   0  0  0  0  0  0  0  0  0  0  0  0
    0.3943   -1.2135    0.0000 C   0  0  0  0  0  0  0  0  0  0  0  0
   -0.3751   -2.5012    0.0000 C   0  0  0  0  0  0  0  0  0  0  0  0
    0.6119   -3.6308    0.0000 O   0  0  0  0  0  0  0  0  0  0  0  0
    1.9911   -3.0413    0.0000 C   0  0  0  0  0  0  0  0  0  0  0  0
    3.2788   -3.8106    0.0000 O   0  0  0  0  0  0  0  0  0  0  0  0
    1.8567   -1.5473    0.0000 C   0  0  0  0  0  0  0  0  0  0  0  0
   -1.0323   -0.7500    0.0000 C   0  0  0  0  0  0  0  0  0  0  0  0
   -1.0323    0.7500    0.0000 O   0  0  0  0  0  0  0  0  0  0  0  0
    5.6202   -0.4179    0.0000 C   0  0  0  0  0  0  0  0  0  0  0  0
    6.9717   -1.0687    0.0000 C   0  0  0  0  0  0  0  0  0  0  0  0
    8.2111   -0.2238    0.0000 C   0  0  0  0  0  0  0  0  0  0  0  0
    8.0990    1.2720    0.0000 O   0  0  0  0  0  0  0  0  0  0  0  0
    9.5625   -0.8746    0.0000 N   0  0  0  0  0  0  0  0  0  0  0  0
   10.8019   -0.0296    0.0000 C   0  0  0  0  0  0  0  0  0  0  0  0
   12.1533   -0.6804    0.0000 C   0  0  0  0  0  0  0  0  0  0  0  0
   12.2654   -2.1762    0.0000 C   0  0  0  0  0  0  0  0  0  0  0  0
   13.6169   -2.8271    0.0000 C   0  0  0  0  0  0  0  0  0  0  0  0
   14.8562   -1.9821    0.0000 C   0  0  0  0  0  0  0  0  0  0  0  0
   16.2077   -2.6329    0.0000 C   0  0  0  0  0  0  0  0  0  0  0  0
   16.3198   -4.1287    0.0000 C   0  0  0  0  0  0  0  0  0  0  0  0
   17.6712   -4.7795    0.0000 C   0  0  0  0  0  0  0  0  0  0  0  0
   18.9106   -3.9346    0.0000 C   0  0  0  0  0  0  0  0  0  0  0  0
   18.7985   -2.4388    0.0000 C   0  0  0  0  0  0  0  0  0  0  0  0
   17.4470   -1.7879    0.0000 C   0  0  0  0  0  0  0  0  0  0  0  0
   17.3349   -0.2921    0.0000 C   0  0  0  0  0  0  0  0  0  0  0  0
   16.0589    0.4964    0.0000 N   0  0  0  0  0  0  0  0  0  0  0  0
   16.4145    1.9536    0.0000 N   0  0  0  0  0  0  0  0  0  0  0  0
   17.9104    2.0657    0.0000 N   0  0  0  0  0  0  0  0  0  0  0  0
   18.4792    0.6778    0.0000 N   0  0  0  0  0  0  0  0  0  0  0  0
   14.7441   -0.4863    0.0000 C   0  0  0  0  0  0  0  0  0  0  0  0
   13.3927    0.1645    0.0000 C   0  0  0  0  0  0  0  0  0  0  0  0
  1  2  1  0
  2  3  1  0
  3  4  1  0
  4  5  1  0
  5  6  2  0
  6  7  1  0
  7  8  2  0
  8  9  1  0
  9 10  2  0
 10 11  1  0
 11 12  1  0
 12 13  1  0
 13 14  2  0
 14 15  1  0
 15 16  1  0
 16 17  1  0
 17 18  1  0
 18 19  1  0
 19 20  2  0
 19 21  1  0
 16 22  1  0
 22 23  1  0
 10 24  1  0
 24 25  2  0
 25 26  1  0
 26 27  2  0
 26 28  1  0
 28 29  1  0
 29 30  1  0
 30 31  2  0
 31 32  1  0
 32 33  2  0
 33 34  1  0
 34 35  2  0
 35 36  1  0
 36 37  2  0
 37 38  1  0
 38 39  2  0
 39 40  1  0
 40 41  2  0
 41 42  1  0
 42 43  2  0
 43 44  1  0
 33 45  1  0
 45 46  2  0
 28  5  1  0
 46 30  1  0
 25  7  1  0
 39 34  1  0
 44 40  1  0
 21 11  1  0
 23 14  1  0
 21 16  1  0
M  END
$$$$
