
     RDKit          2D

 33 36  0  0  0  0  0  0  0  0999 V2000
    4.4547   -7.5375    0.0000 O   0  0  0  0  0  0  0  0  0  0  0  0
    5.9522   -7.4503    0.0000 C   0  0  0  0  0  0  0  0  0  0  0  0
    6.7765   -8.7035    0.0000 O   0  0  0  0  0  0  0  0  0  0  0  0
    6.6254   -6.1099    0.0000 O   0  0  0  0  0  0  0  0  0  0  0  0
    5.8011   -4.8566    0.0000 O   0  0  0  0  0  0  0  0  0  0  0  0
    6.4743   -3.5162    0.0000 O   0  0  0  0  0  0  0  0  0  0  0  0
    5.6501   -2.2629    0.0000 C   0  0  0  0  0  0  0  0  0  0  0  0
    4.1526   -2.3502    0.0000 C   0  0  0  0  0  0  0  0  0  0  0  0
    3.3284   -1.0969    0.0000 C   0  0  0  0  0  0  0  0  0  0  0  0
    4.0015    0.2435    0.0000 C   0  0  0  0  0  0  0  0  0  0  0  0
    3.1773    1.4968    0.0000 C   0  0  0  0  0  0  0  0  0  0  0  0
    3.8505    2.8372    0.0000 O   0  0  0  0  0  0  0  0  0  0  0  0
    1.6798    1.4095    0.0000 C   0  0  0  0  0  0  0  0  0  0  0  0
    2.0257    2.8691    0.0000 C   0  0  0  0  0  0  0  0  0  0  0  0
    1.5955    4.3061    0.0000 N   0  0  0  0  0  0  0  0  0  0  0  0
    3.0551    3.9602    0.0000 N   0  0  0  0  0  0  0  0  0  0  0  0
    4.4921    4.3904    0.0000 C   0  0  0  0  0  0  0  0  0  0  0  0
    5.5832    3.3610    0.0000 C   0  0  0  0  0  0  0  0  0  0  0  0
    7.0201    3.7912    0.0000 C   0  0  0  0  0  0  0  0  0  0  0  0
    7.3661    5.2508    0.0000 C   0  0  0  0  0  0  0  0  0  0  0  0
    6.2750    6.2801    0.0000 C   0  0  0  0  0  0  0  0  0  0  0  0
    4.8380    5.8499    0.0000 C   0  0  0  0  0  0  0  0  0  0  0  0
    3.7470    6.8793    0.0000 Cl  0  0  0  0  0  0  0  0  0  0  0  0
    2.1929    0.0000    0.0000 C   0  0  0  0  0  0  0  0  0  0  0  0
    1.6798   -1.4095    0.0000 C   0  0  0  0  0  0  0  0  0  0  0  0
    0.3808   -2.1595    0.0000 C   0  0  0  0  0  0  0  0  0  0  0  0
   -1.0964   -1.8991    0.0000 C   0  0  0  0  0  0  0  0  0  0  0  0
   -2.0606   -0.7500    0.0000 C   0  0  0  0  0  0  0  0  0  0  0  0
   -2.0606    0.7500    0.0000 C   0  0  0  0  0  0  0  0  0  0  0  0
   -1.0964    1.8991    0.0000 C   0  0  0  0  0  0  0  0  0  0  0  0
    0.3808    2.1595    0.0000 C   0  0  0  0  0  0  0  0  0  0  0  0
    5.4990    0.3307    0.0000 C   0  0  0  0  0  0  0  0  0  0  0  0
    6.3233   -0.9225    0.0000 C   0  0  0  0  0  0  0  0  0  0  0  0
  1  2  2  0
  2  3  1  0
  2  4  1  0
  4  5  1  0
  5  6  1  0
  6  7  1  0
  7  8  2  0
  8  9  1  0
  9 10  2  0
 10 11  1  0
 11 12  2  0
 11 13  1  0
 13 14  1  0
 14 15  2  0
 15 16  1  0
 16 17  1  0
 17 18  2  0
 18 19  1  0
 19 20  2  0
 20 21  1  0
 21 22  2  0
 22 23  1  0
 13 24  1  0
 24 25  1  0
 25 26  1  0
 26 27  1  0
 27 28  1  0
 28 29  1  0
 29 30  1  0
 30 31  1  0
 10 32  1  0
 32 33  2  0
 33  7  1  0
 31 13  1  0
 16 14  1  0
 22 17  1  0
M  END
$$$$
