
     RDKit          2D

 43 48  0  0  0  0  0  0  0  0999 V2000
    9.8696  -10.6936    0.0000 C   0  0  0  0  0  0  0  0  0  0  0  0
    9.1196   -9.3946    0.0000 C   0  0  0  0  0  0  0  0  0  0  0  0
    7.6196   -9.3946    0.0000 C   0  0  0  0  0  0  0  0  0  0  0  0
    6.8696   -8.0956    0.0000 C   0  0  0  0  0  0  0  0  0  0  0  0
    5.3696   -8.0956    0.0000 C   0  0  0  0  0  0  0  0  0  0  0  0
    4.4879   -6.8820    0.0000 C   0  0  0  0  0  0  0  0  0  0  0  0
    3.0613   -7.3456    0.0000 C   0  0  0  0  0  0  0  0  0  0  0  0
    1.8478   -6.4639    0.0000 C   0  0  0  0  0  0  0  0  0  0  0  0
    0.4775   -7.0740    0.0000 C   0  0  0  0  0  0  0  0  0  0  0  0
    2.0046   -4.9721    0.0000 C   0  0  0  0  0  0  0  0  0  0  0  0
    0.8899   -3.9684    0.0000 N   0  0  0  0  0  0  0  0  0  0  0  0
    1.5000   -2.5981    0.0000 C   0  0  0  0  0  0  0  0  0  0  0  0
    0.7500   -1.2990    0.0000 C   0  0  0  0  0  0  0  0  0  0  0  0
    1.5000    0.0000    0.0000 C   0  0  0  0  0  0  0  0  0  0  0  0
    0.7500    1.2990    0.0000 C   0  0  0  0  0  0  0  0  0  0  0  0
   -0.7500    1.2990    0.0000 C   0  0  0  0  0  0  0  0  0  0  0  0
   -1.5000    0.0000    0.0000 C   0  0  0  0  0  0  0  0  0  0  0  0
   -0.7500   -1.2990    0.0000 C   0  0  0  0  0  0  0  0  0  0  0  0
    2.9918   -2.7549    0.0000 C   0  0  0  0  0  0  0  0  0  0  0  0
    3.9955   -1.6402    0.0000 O   0  0  0  0  0  0  0  0  0  0  0  0
    3.3037   -4.2221    0.0000 N   0  0  0  0  0  0  0  0  0  0  0  0
    4.6740   -4.8322    0.0000 C   0  0  0  0  0  0  0  0  0  0  0  0
    3.0613   -8.8456    0.0000 C   0  0  0  0  0  0  0  0  0  0  0  0
    1.8478   -9.7272    0.0000 O   0  0  0  0  0  0  0  0  0  0  0  0
    4.4879   -9.3091    0.0000 N   0  0  0  0  0  0  0  0  0  0  0  0
    4.9515  -10.7357    0.0000 C   0  0  0  0  0  0  0  0  0  0  0  0
    3.9478  -11.8504    0.0000 C   0  0  0  0  0  0  0  0  0  0  0  0
    2.4805  -11.5385    0.0000 C   0  0  0  0  0  0  0  0  0  0  0  0
    1.4768  -12.6532    0.0000 C   0  0  0  0  0  0  0  0  0  0  0  0
    1.9404  -14.0798    0.0000 C   0  0  0  0  0  0  0  0  0  0  0  0
    0.9367  -15.1945    0.0000 C   0  0  0  0  0  0  0  0  0  0  0  0
   -0.5305  -14.8827    0.0000 C   0  0  0  0  0  0  0  0  0  0  0  0
   -1.5342  -15.9974    0.0000 C   0  0  0  0  0  0  0  0  0  0  0  0
   -1.0707  -17.4240    0.0000 C   0  0  0  0  0  0  0  0  0  0  0  0
    0.3965  -17.7358    0.0000 C   0  0  0  0  0  0  0  0  0  0  0  0
    1.4002  -16.6211    0.0000 C   0  0  0  0  0  0  0  0  0  0  0  0
    2.8674  -16.9330    0.0000 C   0  0  0  0  0  0  0  0  0  0  0  0
    3.9821  -15.9293    0.0000 N   0  0  0  0  0  0  0  0  0  0  0  0
    5.2812  -16.6793    0.0000 N   0  0  0  0  0  0  0  0  0  0  0  0
    4.9693  -18.1465    0.0000 N   0  0  0  0  0  0  0  0  0  0  0  0
    3.4775  -18.3033    0.0000 N   0  0  0  0  0  0  0  0  0  0  0  0
    3.4076  -14.3917    0.0000 C   0  0  0  0  0  0  0  0  0  0  0  0
    4.4113  -13.2770    0.0000 C   0  0  0  0  0  0  0  0  0  0  0  0
  1  2  1  0
  2  3  1  0
  3  4  1  0
  4  5  1  0
  5  6  2  0
  6  7  1  0
  7  8  2  3
  8  9  1  0
  8 10  1  0
 10 11  2  0
 11 12  1  0
 12 13  1  0
 13 14  2  0
 14 15  1  0
 15 16  2  0
 16 17  1  0
 17 18  2  0
 12 19  1  0
 19 20  2  0
 19 21  1  0
 21 22  1  0
  7 23  1  0
 23 24  2  0
 23 25  1  0
 25 26  1  0
 26 27  1  0
 27 28  2  0
 28 29  1  0
 29 30  2  0
 30 31  1  0
 31 32  2  0
 32 33  1  0
 33 34  2  0
 34 35  1  0
 35 36  2  0
 36 37  1  0
 37 38  2  0
 38 39  1  0
 39 40  2  0
 40 41  1  0
 30 42  1  0
 42 43  2  0
 25  5  1  0
 43 27  1  0
 21 10  1  0
 36 31  1  0
 41 37  1  0
 18 13  1  0
M  END
$$$$
