
     RDKit          2D

 28 31  0  0  0  0  0  0  0  0999 V2000
   -0.0809    9.5139    0.0000 C   0  0  0  0  0  0  0  0  0  0  0  0
   -0.1611    8.0160    0.0000 C   0  0  0  0  0  0  0  0  0  0  0  0
    1.0960    7.1976    0.0000 C   0  0  0  0  0  0  0  0  0  0  0  0
    2.4333    7.8771    0.0000 N   0  0  0  0  0  0  0  0  0  0  0  0
    3.6903    7.0587    0.0000 N   0  0  0  0  0  0  0  0  0  0  0  0
    3.9605    5.5421    0.0000 C   0  0  0  0  0  0  0  0  0  0  0  0
    5.1917    4.6854    0.0000 C   0  0  0  0  0  0  0  0  0  0  0  0
    6.0304    3.4417    0.0000 C   0  0  0  0  0  0  0  0  0  0  0  0
    6.3631    1.9791    0.0000 C   0  0  0  0  0  0  0  0  0  0  0  0
    6.1451    0.4950    0.0000 C   0  0  0  0  0  0  0  0  0  0  0  0
    5.4056   -0.8100    0.0000 C   0  0  0  0  0  0  0  0  0  0  0  0
    4.2446   -1.7599    0.0000 C   0  0  0  0  0  0  0  0  0  0  0  0
    2.8190   -2.2262    0.0000 C   0  0  0  0  0  0  0  0  0  0  0  0
    3.8041   -3.3573    0.0000 C   0  0  0  0  0  0  0  0  0  0  0  0
    2.1612   -3.5743    0.0000 C   0  0  0  0  0  0  0  0  0  0  0  0
    0.7500   -1.2990    0.0000 C   0  0  0  0  0  0  0  0  0  0  0  0
    1.5000    0.0000    0.0000 N   0  0  0  0  0  0  0  0  0  0  0  0
    0.7500    1.2990    0.0000 N   0  0  0  0  0  0  0  0  0  0  0  0
   -0.7500    1.2990    0.0000 C   0  0  0  0  0  0  0  0  0  0  0  0
   -1.5000    0.0000    0.0000 C   0  0  0  0  0  0  0  0  0  0  0  0
   -0.7500   -1.2990    0.0000 N   0  0  0  0  0  0  0  0  0  0  0  0
   -2.9672    0.3119    0.0000 N   0  0  0  0  0  0  0  0  0  0  0  0
   -3.1240    1.8037    0.0000 C   0  0  0  0  0  0  0  0  0  0  0  0
   -1.7537    2.4138    0.0000 N   0  0  0  0  0  0  0  0  0  0  0  0
   -1.2666    3.8325    0.0000 C   0  0  0  0  0  0  0  0  0  0  0  0
   -0.3000    4.9795    0.0000 C   0  0  0  0  0  0  0  0  0  0  0  0
    1.0158    5.6998    0.0000 C   0  0  0  0  0  0  0  0  0  0  0  0
    2.5028    5.8962    0.0000 N   0  0  0  0  0  0  0  0  0  0  0  0
  1  2  1  0
  2  3  1  0
  3  4  2  0
  4  5  1  0
  5  6  2  0
  6  7  1  0
  7  8  1  0
  8  9  1  0
  9 10  1  0
 10 11  1  0
 11 12  1  0
 12 13  1  0
 13 14  1  0
 13 15  1  0
 13 16  1  0
 16 17  1  0
 17 18  2  0
 18 19  1  0
 19 20  2  0
 20 21  1  0
 20 22  1  0
 22 23  2  0
 23 24  1  0
 24 25  1  0
 25 26  1  0
 26 27  1  0
 27 28  2  0
 27  3  1  0
 28  6  1  0
 21 16  2  0
 24 19  1  0
M  END
$$$$
