
     RDKit          2D

 30 33  0  0  0  0  0  0  0  0999 V2000
   -4.5516    6.5338    0.0000 C   0  0  0  0  0  0  0  0  0  0  0  0
   -3.4605    5.5044    0.0000 O   0  0  0  0  0  0  0  0  0  0  0  0
   -2.0236    5.9346    0.0000 C   0  0  0  0  0  0  0  0  0  0  0  0
   -1.6776    7.3942    0.0000 C   0  0  0  0  0  0  0  0  0  0  0  0
   -2.7687    8.4235    0.0000 C   0  0  0  0  0  0  0  0  0  0  0  0
   -2.4228    9.8831    0.0000 C   0  0  0  0  0  0  0  0  0  0  0  0
   -3.5138   10.9125    0.0000 C   0  0  0  0  0  0  0  0  0  0  0  0
   -4.9508   10.4823    0.0000 C   0  0  0  0  0  0  0  0  0  0  0  0
   -5.2967    9.0227    0.0000 C   0  0  0  0  0  0  0  0  0  0  0  0
   -4.2057    7.9933    0.0000 C   0  0  0  0  0  0  0  0  0  0  0  0
   -0.2407    7.8244    0.0000 C   0  0  0  0  0  0  0  0  0  0  0  0
    0.8504    6.7950    0.0000 C   0  0  0  0  0  0  0  0  0  0  0  0
    2.2874    7.2252    0.0000 Cl  0  0  0  0  0  0  0  0  0  0  0  0
    0.5045    5.3355    0.0000 C   0  0  0  0  0  0  0  0  0  0  0  0
    1.5955    4.3061    0.0000 N   0  0  0  0  0  0  0  0  0  0  0  0
    3.0551    3.9602    0.0000 N   0  0  0  0  0  0  0  0  0  0  0  0
    2.0257    2.8691    0.0000 C   0  0  0  0  0  0  0  0  0  0  0  0
    1.6798    1.4095    0.0000 C   0  0  0  0  0  0  0  0  0  0  0  0
    3.1773    1.4968    0.0000 C   0  0  0  0  0  0  0  0  0  0  0  0
    3.8505    2.8372    0.0000 O   0  0  0  0  0  0  0  0  0  0  0  0
    4.0015    0.2435    0.0000 O   0  0  0  0  0  0  0  0  0  0  0  0
    2.1929    0.0000    0.0000 C   0  0  0  0  0  0  0  0  0  0  0  0
    1.6798   -1.4095    0.0000 C   0  0  0  0  0  0  0  0  0  0  0  0
    0.3808   -2.1595    0.0000 C   0  0  0  0  0  0  0  0  0  0  0  0
   -1.0964   -1.8991    0.0000 C   0  0  0  0  0  0  0  0  0  0  0  0
   -2.0606   -0.7500    0.0000 C   0  0  0  0  0  0  0  0  0  0  0  0
   -2.0606    0.7500    0.0000 C   0  0  0  0  0  0  0  0  0  0  0  0
   -1.0964    1.8991    0.0000 C   0  0  0  0  0  0  0  0  0  0  0  0
    0.3808    2.1595    0.0000 C   0  0  0  0  0  0  0  0  0  0  0  0
   -0.9325    4.9052    0.0000 C   0  0  0  0  0  0  0  0  0  0  0  0
  1  2  1  0
  2  3  1  0
  3  4  2  0
  4  5  1  0
  5  6  2  0
  6  7  1  0
  7  8  2  0
  8  9  1  0
  9 10  2  0
  4 11  1  0
 11 12  2  0
 12 13  1  0
 12 14  1  0
 14 15  1  0
 15 16  1  0
 16 17  2  0
 17 18  1  0
 18 19  1  0
 19 20  2  0
 19 21  1  0
 18 22  1  0
 22 23  1  0
 23 24  1  0
 24 25  1  0
 25 26  1  0
 26 27  1  0
 27 28  1  0
 28 29  1  0
 14 30  2  0
 30  3  1  0
 10  5  1  0
 17 15  1  0
 29 18  1  0
M  END
$$$$
