
     RDKit          2D

 39 44  0  0  0  0  0  0  0  0999 V2000
  -10.0715   -1.7146    0.0000 C   0  0  0  0  0  0  0  0  0  0  0  0
   -8.8749   -2.6192    0.0000 C   0  0  0  0  0  0  0  0  0  0  0  0
   -9.0601   -4.1078    0.0000 C   0  0  0  0  0  0  0  0  0  0  0  0
  -10.3732   -4.8329    0.0000 N   0  0  0  0  0  0  0  0  0  0  0  0
  -10.0893   -6.3058    0.0000 C   0  0  0  0  0  0  0  0  0  0  0  0
  -10.9939   -7.5023    0.0000 C   0  0  0  0  0  0  0  0  0  0  0  0
  -12.4825   -7.3172    0.0000 C   0  0  0  0  0  0  0  0  0  0  0  0
  -10.4100   -8.8840    0.0000 C   0  0  0  0  0  0  0  0  0  0  0  0
   -8.9215   -9.0692    0.0000 C   0  0  0  0  0  0  0  0  0  0  0  0
   -8.3376  -10.4509    0.0000 C   0  0  0  0  0  0  0  0  0  0  0  0
   -8.0169   -7.8726    0.0000 N   0  0  0  0  0  0  0  0  0  0  0  0
   -8.6008   -6.4910    0.0000 C   0  0  0  0  0  0  0  0  0  0  0  0
   -7.9647   -5.1325    0.0000 N   0  0  0  0  0  0  0  0  0  0  0  0
   -6.4918   -4.8486    0.0000 C   0  0  0  0  0  0  0  0  0  0  0  0
   -6.0012   -3.4311    0.0000 C   0  0  0  0  0  0  0  0  0  0  0  0
   -4.5283   -3.1473    0.0000 C   0  0  0  0  0  0  0  0  0  0  0  0
   -4.0377   -1.7298    0.0000 C   0  0  0  0  0  0  0  0  0  0  0  0
   -5.0200   -0.5961    0.0000 C   0  0  0  0  0  0  0  0  0  0  0  0
   -4.5294    0.8214    0.0000 N   0  0  0  0  0  0  0  0  0  0  0  0
   -5.7513    1.6915    0.0000 C   0  0  0  0  0  0  0  0  0  0  0  0
   -6.3087    3.0840    0.0000 C   0  0  0  0  0  0  0  0  0  0  0  0
   -6.0249    4.5569    0.0000 C   0  0  0  0  0  0  0  0  0  0  0  0
   -7.3581    5.2442    0.0000 C   0  0  0  0  0  0  0  0  0  0  0  0
   -4.9898    5.6425    0.0000 S   0  0  0  0  0  4  0  0  0  0  0  0
   -3.5320    5.9961    0.0000 C   0  0  0  0  0  0  0  0  0  0  0  0
   -3.4607    7.4944    0.0000 C   0  0  0  0  0  0  0  0  0  0  0  0
   -2.1145    5.5055    0.0000 C   0  0  0  0  0  0  0  0  0  0  0  0
   -1.1873    4.3265    0.0000 C   0  0  0  0  0  0  0  0  0  0  0  0
   -1.0447    2.8333    0.0000 C   0  0  0  0  0  0  0  0  0  0  0  0
   -1.7321    1.5000    0.0000 C   0  0  0  0  0  0  0  0  0  0  0  0
   -0.4330    0.7500    0.0000 C   0  0  0  0  0  0  0  0  0  0  0  0
    0.8660    0.0000    0.0000 C   0  0  0  0  0  0  0  0  0  0  0  0
   -0.4330   -0.7500    0.0000 C   0  0  0  0  0  0  0  0  0  0  0  0
   -1.7321   -1.5000    0.0000 N   0  0  0  0  0  0  0  0  0  0  0  0
   -3.0311   -0.7500    0.0000 C   0  0  0  0  0  0  0  0  0  0  0  0
   -3.6045   -1.3038    0.0000 O   0  0  0  0  0  0  0  0  0  0  0  0
   -3.0311    0.7500    0.0000 C   0  0  0  0  0  0  0  0  0  0  0  0
   -6.4929   -0.8800    0.0000 C   0  0  0  0  0  0  0  0  0  0  0  0
   -6.9835   -2.2975    0.0000 C   0  0  0  0  0  0  0  0  0  0  0  0
  1  2  1  0
  2  3  1  0
  3  4  2  0
  4  5  1  0
  5  6  2  0
  6  7  1  0
  6  8  1  0
  8  9  2  0
  9 10  1  0
  9 11  1  0
 11 12  2  0
 12 13  1  0
 13 14  1  0
 14 15  1  0
 15 16  2  0
 16 17  1  0
 17 18  2  0
 18 19  1  0
 19 20  1  0
 20 21  1  0
 21 22  2  3
 22 23  1  0
 22 24  1  0
 24 25  2  3
 25 26  1  0
 25 27  1  0
 27 28  2  3
 28 29  1  0
 29 30  2  3
 30 31  1  0
 31 32  2  0
 32 33  2  0
 33 34  1  0
 34 35  1  0
 35 36  2  0
 35 37  1  0
 18 38  1  0
 38 39  2  0
 13  3  1  0
 39 15  1  0
 12  5  1  0
 37 19  1  0
 37 30  1  0
 33 31  1  0
M  END
$$$$
