
     RDKit          2D

 53 57  0  0  0  0  0  0  0  0999 V2000
  -10.1364  -11.7619    0.0000 C   0  0  0  0  0  0  0  0  0  0  0  0
   -8.6446  -11.9186    0.0000 C   0  0  0  0  0  0  0  0  0  0  0  0
   -7.7629  -10.7051    0.0000 C   0  0  0  0  0  0  0  0  0  0  0  0
   -6.2711  -10.8619    0.0000 C   0  0  0  0  0  0  0  0  0  0  0  0
   -5.5211  -12.1610    0.0000 N   0  0  0  0  0  0  0  0  0  0  0  0
   -4.0539  -11.8491    0.0000 C   0  0  0  0  0  0  0  0  0  0  0  0
   -2.9392  -12.8528    0.0000 C   0  0  0  0  0  0  0  0  0  0  0  0
   -3.2511  -14.3200    0.0000 C   0  0  0  0  0  0  0  0  0  0  0  0
   -3.8971  -10.3573    0.0000 C   0  0  0  0  0  0  0  0  0  0  0  0
   -2.5981   -9.6073    0.0000 C   0  0  0  0  0  0  0  0  0  0  0  0
   -1.2990  -10.3573    0.0000 O   0  0  0  0  0  0  0  0  0  0  0  0
   -2.5981   -8.1073    0.0000 O   0  0  0  0  0  0  0  0  0  0  0  0
   -1.2990   -7.3573    0.0000 C   0  0  0  0  0  0  0  0  0  0  0  0
   -1.2990   -5.8573    0.0000 C   0  0  0  0  0  0  0  0  0  0  0  0
   -0.0000   -5.1073    0.0000 C   0  0  0  0  0  0  0  0  0  0  0  0
   -0.0000   -3.6073    0.0000 N   0  0  0  0  0  0  0  0  0  0  0  0
    1.2135   -2.7256    0.0000 C   0  0  0  0  0  0  0  0  0  0  0  0
    2.6401   -3.1891    0.0000 O   0  0  0  0  0  0  0  0  0  0  0  0
    0.7500   -1.2990    0.0000 C   0  0  0  0  0  0  0  0  0  0  0  0
    1.5000    0.0000    0.0000 C   0  0  0  0  0  0  0  0  0  0  0  0
    0.7500    1.2990    0.0000 C   0  0  0  0  0  0  0  0  0  0  0  0
   -0.7500    1.2990    0.0000 C   0  0  0  0  0  0  0  0  0  0  0  0
   -1.5000    0.0000    0.0000 C   0  0  0  0  0  0  0  0  0  0  0  0
   -0.7500   -1.2990    0.0000 C   0  0  0  0  0  0  0  0  0  0  0  0
   -1.2135   -2.7256    0.0000 C   0  0  0  0  0  0  0  0  0  0  0  0
   -2.6401   -3.1891    0.0000 O   0  0  0  0  0  0  0  0  0  0  0  0
   -5.2674   -9.7472    0.0000 N   0  0  0  0  0  0  0  0  0  0  0  0
   -5.5793   -8.2800    0.0000 C   0  0  0  0  0  0  0  0  0  0  0  0
   -7.0059   -7.8164    0.0000 C   0  0  0  0  0  0  0  0  0  0  0  0
   -8.1206   -8.8201    0.0000 C   0  0  0  0  0  0  0  0  0  0  0  0
   -9.5472   -8.3566    0.0000 C   0  0  0  0  0  0  0  0  0  0  0  0
   -9.8591   -6.8894    0.0000 C   0  0  0  0  0  0  0  0  0  0  0  0
  -11.2856   -6.4259    0.0000 C   0  0  0  0  0  0  0  0  0  0  0  0
  -12.4004   -7.4296    0.0000 C   0  0  0  0  0  0  0  0  0  0  0  0
  -13.8269   -6.9660    0.0000 C   0  0  0  0  0  0  0  0  0  0  0  0
  -14.1388   -5.4988    0.0000 C   0  0  0  0  0  0  0  0  0  0  0  0
  -13.0241   -4.4951    0.0000 C   0  0  0  0  0  0  0  0  0  0  0  0
  -11.5975   -4.9587    0.0000 C   0  0  0  0  0  0  0  0  0  0  0  0
  -10.4828   -3.9550    0.0000 S   0  0  0  0  0  0  0  0  0  0  0  0
  -11.4865   -2.8402    0.0000 O   0  0  0  0  0  0  0  0  0  0  0  0
   -9.4791   -5.0697    0.0000 O   0  0  0  0  0  0  0  0  0  0  0  0
   -9.3681   -2.9513    0.0000 N   0  0  0  0  0  0  0  0  0  0  0  0
   -9.6799   -1.4840    0.0000 C   0  0  0  0  0  0  0  0  0  0  0  0
  -11.1065   -1.0205    0.0000 O   0  0  0  0  0  0  0  0  0  0  0  0
   -8.5652   -0.4803    0.0000 O   0  0  0  0  0  0  0  0  0  0  0  0
   -8.8771    0.9869    0.0000 C   0  0  0  0  0  0  0  0  0  0  0  0
   -7.7624    1.9906    0.0000 C   0  0  0  0  0  0  0  0  0  0  0  0
   -8.0742    3.4578    0.0000 C   0  0  0  0  0  0  0  0  0  0  0  0
   -6.9595    4.4615    0.0000 C   0  0  0  0  0  0  0  0  0  0  0  0
   -9.5008    3.9213    0.0000 C   0  0  0  0  0  0  0  0  0  0  0  0
   -8.7443   -5.8857    0.0000 C   0  0  0  0  0  0  0  0  0  0  0  0
   -7.3178   -6.3492    0.0000 C   0  0  0  0  0  0  0  0  0  0  0  0
   -6.2030   -5.3455    0.0000 F   0  0  0  0  0  0  0  0  0  0  0  0
  1  2  1  0
  2  3  1  0
  3  4  1  0
  4  5  2  0
  5  6  1  0
  6  7  1  0
  7  8  1  0
  6  9  2  0
  9 10  1  0
 10 11  2  0
 10 12  1  0
 12 13  1  0
 13 14  1  0
 14 15  1  0
 15 16  1  0
 16 17  1  0
 17 18  2  0
 17 19  1  0
 19 20  2  0
 20 21  1  0
 21 22  2  0
 22 23  1  0
 23 24  2  0
 24 25  1  0
 25 26  2  0
  9 27  1  0
 27 28  1  0
 28 29  1  0
 29 30  2  0
 30 31  1  0
 31 32  2  0
 32 33  1  0
 33 34  2  0
 34 35  1  0
 35 36  2  0
 36 37  1  0
 37 38  2  0
 38 39  1  0
 39 40  2  0
 39 41  2  0
 39 42  1  0
 42 43  1  0
 43 44  2  0
 43 45  1  0
 45 46  1  0
 46 47  1  0
 47 48  1  0
 48 49  1  0
 48 50  1  0
 32 51  1  0
 51 52  2  0
 52 53  1  0
 27  4  1  0
 52 29  1  0
 25 16  1  0
 38 33  1  0
 24 19  1  0
M  END
$$$$
