
     RDKit          2D

 26 28  0  0  0  0  0  0  0  0999 V2000
   -0.5023    3.4683    0.0000 O   0  0  0  0  0  0  0  0  0  0  0  0
    0.9347    3.8985    0.0000 C   0  0  0  0  0  0  0  0  0  0  0  0
    1.2806    5.3580    0.0000 O   0  0  0  0  0  0  0  0  0  0  0  0
    2.0257    2.8691    0.0000 C   0  0  0  0  0  0  0  0  0  0  0  0
    1.6798    1.4095    0.0000 C   0  0  0  0  0  0  0  0  0  0  0  0
    3.1773    1.4968    0.0000 C   0  0  0  0  0  0  0  0  0  0  0  0
    4.1280    0.3365    0.0000 N   0  0  0  0  0  0  0  0  0  0  0  0
    5.5253    0.8822    0.0000 N   0  0  0  0  0  0  0  0  0  0  0  0
    6.7880    0.0726    0.0000 C   0  0  0  0  0  0  0  0  0  0  0  0
    8.1205    0.7614    0.0000 C   0  0  0  0  0  0  0  0  0  0  0  0
    8.1903    2.2597    0.0000 C   0  0  0  0  0  0  0  0  0  0  0  0
    9.5228    2.9485    0.0000 C   0  0  0  0  0  0  0  0  0  0  0  0
   10.7856    2.1389    0.0000 C   0  0  0  0  0  0  0  0  0  0  0  0
   10.7158    0.6405    0.0000 C   0  0  0  0  0  0  0  0  0  0  0  0
    9.3833   -0.0483    0.0000 C   0  0  0  0  0  0  0  0  0  0  0  0
    5.4380    2.3797    0.0000 C   0  0  0  0  0  0  0  0  0  0  0  0
    6.5982    3.3304    0.0000 O   0  0  0  0  0  0  0  0  0  0  0  0
    3.9869    2.7595    0.0000 N   0  0  0  0  0  0  0  0  0  0  0  0
    2.1929    0.0000    0.0000 C   0  0  0  0  0  0  0  0  0  0  0  0
    1.6798   -1.4095    0.0000 C   0  0  0  0  0  0  0  0  0  0  0  0
    0.3808   -2.1595    0.0000 C   0  0  0  0  0  0  0  0  0  0  0  0
   -1.0964   -1.8991    0.0000 C   0  0  0  0  0  0  0  0  0  0  0  0
   -2.0606   -0.7500    0.0000 C   0  0  0  0  0  0  0  0  0  0  0  0
   -2.0606    0.7500    0.0000 C   0  0  0  0  0  0  0  0  0  0  0  0
   -1.0964    1.8991    0.0000 C   0  0  0  0  0  0  0  0  0  0  0  0
    0.3808    2.1595    0.0000 C   0  0  0  0  0  0  0  0  0  0  0  0
  1  2  2  0
  2  3  1  0
  2  4  1  0
  4  5  1  0
  5  6  1  0
  6  7  2  0
  7  8  1  0
  8  9  1  0
  9 10  1  0
 10 11  2  0
 11 12  1  0
 12 13  2  0
 13 14  1  0
 14 15  2  0
  8 16  1  0
 16 17  1  0
 16 18  2  0
  5 19  1  0
 19 20  1  0
 20 21  1  0
 21 22  1  0
 22 23  1  0
 23 24  1  0
 24 25  1  0
 25 26  1  0
 26  5  1  0
 18  6  1  0
 15 10  1  0
M  END
$$$$
