
     RDKit          2D

 46 51  0  0  0  0  0  0  0  0999 V2000
   -9.9924    0.8789    0.0000 C   0  0  0  0  0  0  0  0  0  0  0  0
   -9.5289   -0.5477    0.0000 C   0  0  0  0  0  0  0  0  0  0  0  0
  -10.5326   -1.6624    0.0000 C   0  0  0  0  0  0  0  0  0  0  0  0
  -12.0243   -1.5057    0.0000 N   0  0  0  0  0  0  0  0  0  0  0  0
  -12.6345   -2.8760    0.0000 C   0  0  0  0  0  0  0  0  0  0  0  0
  -14.0610   -3.3395    0.0000 C   0  0  0  0  0  0  0  0  0  0  0  0
  -15.1758   -2.3358    0.0000 C   0  0  0  0  0  0  0  0  0  0  0  0
  -14.3729   -4.8067    0.0000 C   0  0  0  0  0  0  0  0  0  0  0  0
  -13.2582   -5.8104    0.0000 C   0  0  0  0  0  0  0  0  0  0  0  0
  -13.5701   -7.2776    0.0000 C   0  0  0  0  0  0  0  0  0  0  0  0
  -11.8316   -5.3469    0.0000 N   0  0  0  0  0  0  0  0  0  0  0  0
  -11.5197   -3.8797    0.0000 C   0  0  0  0  0  0  0  0  0  0  0  0
  -10.2207   -3.1297    0.0000 N   0  0  0  0  0  0  0  0  0  0  0  0
   -8.8504   -3.7398    0.0000 C   0  0  0  0  0  0  0  0  0  0  0  0
   -7.6369   -2.8581    0.0000 C   0  0  0  0  0  0  0  0  0  0  0  0
   -6.2665   -3.4682    0.0000 C   0  0  0  0  0  0  0  0  0  0  0  0
   -5.0530   -2.5865    0.0000 C   0  0  0  0  0  0  0  0  0  0  0  0
   -5.2098   -1.0947    0.0000 C   0  0  0  0  0  0  0  0  0  0  0  0
   -3.9963   -0.2131    0.0000 N   0  0  0  0  0  0  0  0  0  0  0  0
   -4.4598    1.2135    0.0000 C   0  0  0  0  0  0  0  0  0  0  0  0
   -3.9963    2.6401    0.0000 C   0  0  0  0  0  0  0  0  0  0  0  0
   -5.2098    3.5218    0.0000 C   0  0  0  0  0  0  0  0  0  0  0  0
   -5.0530    5.0136    0.0000 C   0  0  0  0  0  0  0  0  0  0  0  0
   -6.2665    5.8952    0.0000 C   0  0  0  0  0  0  0  0  0  0  0  0
   -7.6369    5.2851    0.0000 C   0  0  0  0  0  0  0  0  0  0  0  0
   -7.7936    3.7934    0.0000 C   0  0  0  0  0  0  0  0  0  0  0  0
   -6.5801    2.9117    0.0000 C   0  0  0  0  0  0  0  0  0  0  0  0
   -6.7369    1.4199    0.0000 O   0  0  0  0  0  0  0  0  0  0  0  0
   -8.1072    0.8098    0.0000 C   0  0  0  0  0  0  0  0  0  0  0  0
   -9.3208    1.6915    0.0000 O   0  0  0  0  0  0  0  0  0  0  0  0
   -8.2640   -0.6820    0.0000 O   0  0  0  0  0  0  0  0  0  0  0  0
   -2.7828    3.5218    0.0000 N   0  0  0  0  0  0  0  0  0  0  0  0
   -1.2828    3.5218    0.0000 N   0  0  0  0  0  0  0  0  0  0  0  0
   -0.0692    2.6401    0.0000 N   0  0  0  0  0  0  0  0  0  0  0  0
    0.3943    1.2135    0.0000 N   0  0  0  0  0  0  0  0  0  0  0  0
    1.2760    0.0000    0.0000 O   0  0  0  0  0  0  0  0  0  0  0  0
    0.3943   -1.2135    0.0000 C   0  0  0  0  0  0  0  0  0  0  0  0
    0.8578   -2.6401    0.0000 C   0  0  0  0  0  0  0  0  0  0  0  0
   -1.0323   -0.7500    0.0000 C   0  0  0  0  0  0  0  0  0  0  0  0
   -2.7828   -1.0947    0.0000 C   0  0  0  0  0  0  0  0  0  0  0  0
   -3.2463   -2.5213    0.0000 O   0  0  0  0  0  0  0  0  0  0  0  0
   -1.0323    0.7500    0.0000 N   0  0  0  0  0  0  0  0  0  0  0  0
   -2.2458    1.6317    0.0000 O   0  0  0  0  0  0  0  0  0  0  0  0
   -2.0890    3.1235    0.0000 C   0  0  0  0  0  0  0  0  0  0  0  0
   -6.5801   -0.4846    0.0000 C   0  0  0  0  0  0  0  0  0  0  0  0
   -7.7936   -1.3663    0.0000 C   0  0  0  0  0  0  0  0  0  0  0  0
  1  2  1  0
  2  3  1  0
  3  4  2  0
  4  5  1  0
  5  6  2  0
  6  7  1  0
  6  8  1  0
  8  9  2  0
  9 10  1  0
  9 11  1  0
 11 12  2  0
 12 13  1  0
 13 14  1  0
 14 15  1  0
 15 16  2  0
 16 17  1  0
 17 18  2  0
 18 19  1  0
 19 20  1  0
 20 21  1  0
 21 22  1  0
 22 23  2  0
 23 24  1  0
 24 25  2  0
 25 26  1  0
 26 27  2  0
 27 28  1  0
 28 29  1  0
 29 30  2  0
 29 31  1  0
 21 32  2  3
 32 33  1  0
 33 34  2  3
 34 35  1  0
 35 36  1  0
 36 37  1  0
 37 38  1  0
 37 39  2  0
 39 40  1  0
 40 41  2  0
 39 42  1  0
 42 43  1  0
 43 44  1  0
 18 45  1  0
 45 46  2  0
 13  3  1  0
 46 15  1  0
 12  5  1  0
 40 19  1  0
 27 22  1  0
 42 35  1  0
M  END
$$$$
