
     RDKit          2D

 37 40  0  0  0  0  0  0  0  0999 V2000
    3.7500   -1.2990    0.0000 C   0  0  0  0  0  0  0  0  0  0  0  0
    3.0000    0.0000    0.0000 O   0  0  0  0  0  0  0  0  0  0  0  0
    1.5000    0.0000    0.0000 C   0  0  0  0  0  0  0  0  0  0  0  0
    0.7500   -1.2990    0.0000 C   0  0  0  0  0  0  0  0  0  0  0  0
   -0.7500   -1.2990    0.0000 C   0  0  0  0  0  0  0  0  0  0  0  0
   -1.5000    0.0000    0.0000 C   0  0  0  0  0  0  0  0  0  0  0  0
   -3.0000    0.0000    0.0000 C   0  0  0  0  0  0  0  0  0  0  0  0
   -3.7500    1.2990    0.0000 C   0  0  0  0  0  0  0  0  0  0  0  0
   -5.2500    1.2990    0.0000 N   0  0  0  0  0  0  0  0  0  0  0  0
   -6.1317    0.0855    0.0000 O   0  0  0  0  0  0  0  0  0  0  0  0
   -7.5583    0.5490    0.0000 C   0  0  0  0  0  0  0  0  0  0  0  0
   -8.7718   -0.3326    0.0000 O   0  0  0  0  0  0  0  0  0  0  0  0
   -7.5583    2.0490    0.0000 O   0  0  0  0  0  0  0  0  0  0  0  0
   -6.1317    2.5126    0.0000 C   0  0  0  0  0  0  0  0  0  0  0  0
   -6.7418    3.8829    0.0000 C   0  0  0  0  0  0  0  0  0  0  0  0
   -8.2336    4.0397    0.0000 C   0  0  0  0  0  0  0  0  0  0  0  0
   -8.9836    5.3387    0.0000 C   0  0  0  0  0  0  0  0  0  0  0  0
  -10.4508    5.0268    0.0000 N   0  0  0  0  0  0  0  0  0  0  0  0
  -10.6076    3.5351    0.0000 C   0  0  0  0  0  0  0  0  0  0  0  0
  -11.9066    2.7851    0.0000 C   0  0  0  0  0  0  0  0  0  0  0  0
   -9.2373    2.9250    0.0000 N   0  0  0  0  0  0  0  0  0  0  0  0
   -8.9254    1.4577    0.0000 C   0  0  0  0  0  0  0  0  0  0  0  0
  -10.0401    0.4540    0.0000 C   0  0  0  0  0  0  0  0  0  0  0  0
   -9.7282   -1.0132    0.0000 C   0  0  0  0  0  0  0  0  0  0  0  0
  -10.8430   -2.0169    0.0000 C   0  0  0  0  0  0  0  0  0  0  0  0
  -12.2695   -1.5534    0.0000 C   0  0  0  0  0  0  0  0  0  0  0  0
  -12.5814   -0.0861    0.0000 C   0  0  0  0  0  0  0  0  0  0  0  0
  -11.4667    0.9176    0.0000 C   0  0  0  0  0  0  0  0  0  0  0  0
   -4.8326    3.2626    0.0000 C   0  0  0  0  0  0  0  0  0  0  0  0
   -3.5336    2.5126    0.0000 O   0  0  0  0  0  0  0  0  0  0  0  0
   -4.8326    4.7626    0.0000 O   0  0  0  0  0  0  0  0  0  0  0  0
   -3.5336    5.5126    0.0000 C   0  0  0  0  0  0  0  0  0  0  0  0
   -3.5336    7.0126    0.0000 C   0  0  0  0  0  0  0  0  0  0  0  0
   -2.2346    7.7626    0.0000 C   0  0  0  0  0  0  0  0  0  0  0  0
   -4.8326    7.7626    0.0000 C   0  0  0  0  0  0  0  0  0  0  0  0
   -0.7500    1.2990    0.0000 C   0  0  0  0  0  0  0  0  0  0  0  0
    0.7500    1.2990    0.0000 C   0  0  0  0  0  0  0  0  0  0  0  0
  1  2  1  0
  2  3  1  0
  3  4  2  0
  4  5  1  0
  5  6  2  0
  6  7  1  0
  7  8  1  0
  8  9  1  0
  9 10  1  0
 10 11  1  0
 11 12  2  0
 11 13  1  0
 13 14  1  0
 14 15  1  0
 15 16  1  0
 16 17  2  0
 17 18  1  0
 18 19  2  0
 19 20  1  0
 19 21  1  0
 21 22  1  0
 22 23  1  0
 23 24  2  0
 24 25  1  0
 25 26  2  0
 26 27  1  0
 27 28  2  0
 14 29  1  0
 29 30  2  0
 29 31  1  0
 31 32  1  0
 32 33  1  0
 33 34  1  0
 33 35  1  0
  6 36  1  0
 36 37  2  0
 37  3  1  0
 14  9  1  0
 21 16  1  0
 28 23  1  0
M  END
$$$$
