
     RDKit          2D

 29 32  0  0  0  0  0  0  0  0999 V2000
    0.4989   -2.7099    0.0000 N   0  0  0  0  0  0  0  0  0  0  0  0
    0.3943   -1.2135    0.0000 C   0  0  0  0  0  0  0  0  0  0  0  0
    1.3295   -2.8840    0.0000 C   0  0  0  0  0  0  0  0  0  0  0  0
    2.6810   -3.5348    0.0000 C   0  0  0  0  0  0  0  0  0  0  0  0
    4.1810   -3.5348    0.0000 C   0  0  0  0  0  0  0  0  0  0  0  0
    5.5324   -2.8840    0.0000 C   0  0  0  0  0  0  0  0  0  0  0  0
    6.4677   -1.7113    0.0000 C   0  0  0  0  0  0  0  0  0  0  0  0
    6.8015   -0.2489    0.0000 C   0  0  0  0  0  0  0  0  0  0  0  0
    6.4677    1.2135    0.0000 C   0  0  0  0  0  0  0  0  0  0  0  0
    7.8191    1.8644    0.0000 O   0  0  0  0  0  0  0  0  0  0  0  0
    5.5324    2.3863    0.0000 N   0  0  0  0  0  0  0  0  0  0  0  0
    4.1810    3.0371    0.0000 C   0  0  0  0  0  0  0  0  0  0  0  0
    4.5148    4.4995    0.0000 O   0  0  0  0  0  0  0  0  0  0  0  0
    5.9481    4.9416    0.0000 C   0  0  0  0  0  0  0  0  0  0  0  0
    6.2819    6.4040    0.0000 C   0  0  0  0  0  0  0  0  0  0  0  0
    7.7153    6.8461    0.0000 C   0  0  0  0  0  0  0  0  0  0  0  0
    8.0490    8.3085    0.0000 C   0  0  0  0  0  0  0  0  0  0  0  0
    6.9495    9.3288    0.0000 C   0  0  0  0  0  0  0  0  0  0  0  0
    5.5161    8.8867    0.0000 C   0  0  0  0  0  0  0  0  0  0  0  0
    5.1823    7.4243    0.0000 C   0  0  0  0  0  0  0  0  0  0  0  0
    2.6810    3.0371    0.0000 N   0  0  0  0  0  0  0  0  0  0  0  0
    1.3295    2.3863    0.0000 C   0  0  0  0  0  0  0  0  0  0  0  0
    0.3943    1.2135    0.0000 C   0  0  0  0  0  0  0  0  0  0  0  0
    1.2760    0.0000    0.0000 C   0  0  0  0  0  0  0  0  0  0  0  0
   -1.0323    0.7500    0.0000 N   0  0  0  0  0  0  0  0  0  0  0  0
   -1.0323   -0.7500    0.0000 C   0  0  0  0  0  0  0  0  0  0  0  0
   -1.9140    0.4635    0.0000 N   0  0  0  0  0  0  0  0  0  0  0  0
   -1.0323    1.6771    0.0000 C   0  0  0  0  0  0  0  0  0  0  0  0
   -1.4958    3.1036    0.0000 O   0  0  0  0  0  0  0  0  0  0  0  0
  1  2  1  0
  2  3  1  0
  3  4  1  0
  4  5  1  0
  5  6  1  0
  6  7  1  0
  7  8  1  0
  8  9  1  0
  9 10  2  0
  9 11  1  0
 11 12  2  3
 12 13  1  0
 13 14  1  0
 14 15  1  0
 15 16  2  0
 16 17  1  0
 17 18  2  0
 18 19  1  0
 19 20  2  0
 12 21  1  0
 21 22  2  3
 22 23  1  0
 23 24  1  0
 23 25  1  0
 25 26  2  0
 26 27  1  0
 27 28  1  0
 28 29  2  0
 24  2  1  0
 26  2  1  0
 20 15  1  0
 28 23  1  0
M  END
$$$$
