
     RDKit          2D

 28 32  0  0  0  0  0  0  0  0999 V2000
   -0.3582   -7.9820    0.0000 O   0  0  0  0  0  0  0  0  0  0  0  0
    0.6287   -6.8524    0.0000 C   0  0  0  0  0  0  0  0  0  0  0  0
    2.0747   -7.2514    0.0000 N   0  0  0  0  0  0  0  0  0  0  0  0
    3.2882   -6.3698    0.0000 C   0  0  0  0  0  0  0  0  0  0  0  0
    4.6091   -7.0806    0.0000 O   0  0  0  0  0  0  0  0  0  0  0  0
    3.3555   -4.8713    0.0000 N   0  0  0  0  0  0  0  0  0  0  0  0
    4.7348   -4.2817    0.0000 C   0  0  0  0  0  0  0  0  0  0  0  0
    4.9139   -2.7925    0.0000 C   0  0  0  0  0  0  0  0  0  0  0  0
    6.2932   -2.2029    0.0000 C   0  0  0  0  0  0  0  0  0  0  0  0
    7.4934   -3.1027    0.0000 C   0  0  0  0  0  0  0  0  0  0  0  0
    8.8727   -2.5131    0.0000 C   0  0  0  0  0  0  0  0  0  0  0  0
    9.0518   -1.0239    0.0000 C   0  0  0  0  0  0  0  0  0  0  0  0
    7.8516   -0.1241    0.0000 C   0  0  0  0  0  0  0  0  0  0  0  0
    6.4723   -0.7137    0.0000 C   0  0  0  0  0  0  0  0  0  0  0  0
    2.2259   -3.8844    0.0000 C   0  0  0  0  0  0  0  0  0  0  0  0
    0.7500   -4.1522    0.0000 C   0  0  0  0  0  0  0  0  0  0  0  0
   -0.7500   -4.1522    0.0000 C   0  0  0  0  0  0  0  0  0  0  0  0
   -1.2135   -2.7256    0.0000 C   0  0  0  0  0  0  0  0  0  0  0  0
   -0.0000   -3.6073    0.0000 C   0  0  0  0  0  0  0  0  0  0  0  0
   -0.1929   -4.3808    0.0000 O   0  0  0  0  0  0  0  0  0  0  0  0
    1.2135   -2.7256    0.0000 N   0  0  0  0  0  0  0  0  0  0  0  0
    0.7500   -1.2990    0.0000 C   0  0  0  0  0  0  0  0  0  0  0  0
    1.5000    0.0000    0.0000 C   0  0  0  0  0  0  0  0  0  0  0  0
    0.7500    1.2990    0.0000 N   0  0  0  0  0  0  0  0  0  0  0  0
   -0.7500    1.2990    0.0000 C   0  0  0  0  0  0  0  0  0  0  0  0
   -1.5000    0.0000    0.0000 C   0  0  0  0  0  0  0  0  0  0  0  0
   -0.7500   -1.2990    0.0000 C   0  0  0  0  0  0  0  0  0  0  0  0
    0.0392   -5.4731    0.0000 O   0  0  0  0  0  0  0  0  0  0  0  0
  1  2  2  0
  2  3  1  0
  3  4  1  0
  4  5  2  0
  4  6  1  0
  6  7  1  0
  7  8  1  0
  8  9  1  0
  9 10  2  0
 10 11  1  0
 11 12  2  0
 12 13  1  0
 13 14  2  0
  6 15  1  0
 15 16  1  0
 16 17  1  0
 17 18  1  0
 18 19  1  0
 19 20  2  0
 19 21  1  0
 21 22  1  0
 22 23  2  0
 23 24  1  0
 24 25  2  0
 25 26  1  0
 26 27  2  0
 16 28  1  0
 28  2  1  0
 14  9  1  0
 21 16  1  0
 27 22  1  0
 27 18  1  0
M  END
$$$$
