
     RDKit          2D

 52 57  0  0  0  0  0  0  0  0999 V2000
   -0.5431   -8.8874    0.0000 C   0  0  0  0  0  0  0  0  0  0  0  0
   -0.2532   -7.4157    0.0000 C   0  0  0  0  0  0  0  0  0  0  0  0
    1.1663   -6.9309    0.0000 C   0  0  0  0  0  0  0  0  0  0  0  0
    1.4562   -5.4591    0.0000 C   0  0  0  0  0  0  0  0  0  0  0  0
    2.8757   -4.9743    0.0000 C   0  0  0  0  0  0  0  0  0  0  0  0
    4.1022   -5.8378    0.0000 N   0  0  0  0  0  0  0  0  0  0  0  0
    5.3024   -4.9380    0.0000 N   0  0  0  0  0  0  0  0  0  0  0  0
    6.7358   -5.3802    0.0000 C   0  0  0  0  0  0  0  0  0  0  0  0
    7.0696   -6.8425    0.0000 C   0  0  0  0  0  0  0  0  0  0  0  0
    8.5029   -7.2847    0.0000 C   0  0  0  0  0  0  0  0  0  0  0  0
    8.8367   -8.7471    0.0000 N   0  0  0  0  0  0  0  0  0  0  0  0
    7.7371   -9.7673    0.0000 C   0  0  0  0  0  0  0  0  0  0  0  0
    6.3038   -9.3252    0.0000 O   0  0  0  0  0  0  0  0  0  0  0  0
    8.0709  -11.2297    0.0000 C   0  0  0  0  0  0  0  0  0  0  0  0
    6.9713  -12.2500    0.0000 C   0  0  0  0  0  0  0  0  0  0  0  0
    9.6025   -6.2644    0.0000 C   0  0  0  0  0  0  0  0  0  0  0  0
    9.2687   -4.8020    0.0000 C   0  0  0  0  0  0  0  0  0  0  0  0
    7.8354   -4.3599    0.0000 C   0  0  0  0  0  0  0  0  0  0  0  0
    7.5016   -2.8975    0.0000 C   0  0  0  0  0  0  0  0  0  0  0  0
    7.1678   -1.4351    0.0000 F   0  0  0  0  0  0  0  0  0  0  0  0
    8.9640   -2.5637    0.0000 F   0  0  0  0  0  0  0  0  0  0  0  0
    6.0392   -3.2313    0.0000 F   0  0  0  0  0  0  0  0  0  0  0  0
    4.8176   -3.5185    0.0000 C   0  0  0  0  0  0  0  0  0  0  0  0
    5.6811   -2.2919    0.0000 O   0  0  0  0  0  0  0  0  0  0  0  0
    3.3178   -3.5410    0.0000 N   0  0  0  0  0  0  0  0  0  0  0  0
    2.4181   -2.3408    0.0000 C   0  0  0  0  0  0  0  0  0  0  0  0
    3.0076   -0.9615    0.0000 C   0  0  0  0  0  0  0  0  0  0  0  0
    4.4969   -0.7824    0.0000 C   0  0  0  0  0  0  0  0  0  0  0  0
    5.0864    0.5969    0.0000 C   0  0  0  0  0  0  0  0  0  0  0  0
    4.1867    1.7971    0.0000 C   0  0  0  0  0  0  0  0  0  0  0  0
    4.7762    3.1764    0.0000 C   0  0  0  0  0  0  0  0  0  0  0  0
    6.2655    3.3555    0.0000 C   0  0  0  0  0  0  0  0  0  0  0  0
    6.8550    4.7348    0.0000 C   0  0  0  0  0  0  0  0  0  0  0  0
    5.9553    5.9350    0.0000 C   0  0  0  0  0  0  0  0  0  0  0  0
    4.4660    5.7559    0.0000 C   0  0  0  0  0  0  0  0  0  0  0  0
    3.8765    4.3766    0.0000 C   0  0  0  0  0  0  0  0  0  0  0  0
    2.3872    4.1975    0.0000 S   0  0  0  0  0  0  0  0  0  0  0  0
    2.2081    5.6868    0.0000 O   0  0  0  0  0  0  0  0  0  0  0  0
    2.5663    2.7082    0.0000 O   0  0  0  0  0  0  0  0  0  0  0  0
    0.8979    4.0184    0.0000 N   0  0  0  0  0  0  0  0  0  0  0  0
   -0.0018    5.2186    0.0000 C   0  0  0  0  0  0  0  0  0  0  0  0
   -1.5016    5.1962    0.0000 C   0  0  0  0  0  0  0  0  0  0  0  0
   -2.2623    6.6115    0.0000 C   0  0  0  0  0  0  0  0  0  0  0  0
   -0.9012    5.9810    0.0000 C   0  0  0  0  0  0  0  0  0  0  0  0
    0.4403    6.6520    0.0000 C   0  0  0  0  0  0  0  0  0  0  0  0
    0.7522    8.1192    0.0000 C   0  0  0  0  0  0  0  0  0  0  0  0
   -0.2005    9.2778    0.0000 C   0  0  0  0  0  0  0  0  0  0  0  0
   -1.7003    9.2554    0.0000 C   0  0  0  0  0  0  0  0  0  0  0  0
   -2.6179    8.0688    0.0000 C   0  0  0  0  0  0  0  0  0  0  0  0
    2.6974    1.6180    0.0000 C   0  0  0  0  0  0  0  0  0  0  0  0
    2.1079    0.2387    0.0000 C   0  0  0  0  0  0  0  0  0  0  0  0
    0.6186    0.0596    0.0000 F   0  0  0  0  0  0  0  0  0  0  0  0
  1  2  1  0
  2  3  1  0
  3  4  1  0
  4  5  1  0
  5  6  2  0
  6  7  1  0
  7  8  1  0
  8  9  2  0
  9 10  1  0
 10 11  1  0
 11 12  1  0
 12 13  2  0
 12 14  1  0
 14 15  1  0
 10 16  2  0
 16 17  1  0
 17 18  2  0
 18 19  1  0
 19 20  1  0
 19 21  1  0
 19 22  1  0
  7 23  1  0
 23 24  2  0
 23 25  1  0
 25 26  1  0
 26 27  1  0
 27 28  2  0
 28 29  1  0
 29 30  2  0
 30 31  1  0
 31 32  2  0
 32 33  1  0
 33 34  2  0
 34 35  1  0
 35 36  2  0
 36 37  1  0
 37 38  2  0
 37 39  2  0
 37 40  1  0
 40 41  1  0
 41 42  2  0
 42 43  2  0
 43 44  1  0
 44 45  2  0
 45 46  1  0
 46 47  1  0
 47 48  1  0
 48 49  1  0
 30 50  1  0
 50 51  2  0
 51 52  1  0
 25  5  1  0
 51 27  1  0
 18  8  1  0
 36 31  1  0
 45 41  1  0
 49 43  1  0
M  END
$$$$
