
     RDKit          2D

 67 73  0  0  0  0  0  0  0  0999 V2000
    4.4638   -9.9751    0.0000 C   0  0  0  0  0  0  0  0  0  0  0  0
    3.4031   -8.9145    0.0000 O   0  0  0  0  0  0  0  0  0  0  0  0
    1.9542   -9.3027    0.0000 C   0  0  0  0  0  0  0  0  0  0  0  0
    1.5660  -10.7516    0.0000 C   0  0  0  0  0  0  0  0  0  0  0  0
    0.1171  -11.1398    0.0000 C   0  0  0  0  0  0  0  0  0  0  0  0
   -0.9436  -10.0792    0.0000 C   0  0  0  0  0  0  0  0  0  0  0  0
   -0.5553   -8.6303    0.0000 C   0  0  0  0  0  0  0  0  0  0  0  0
    0.8936   -8.2420    0.0000 C   0  0  0  0  0  0  0  0  0  0  0  0
    1.2818   -6.7931    0.0000 C   0  0  0  0  0  0  0  0  0  0  0  0
    2.7307   -6.4049    0.0000 O   0  0  0  0  0  0  0  0  0  0  0  0
    3.1189   -4.9560    0.0000 C   0  0  0  0  0  0  0  0  0  0  0  0
    4.5678   -4.5678    0.0000 C   0  0  0  0  0  0  0  0  0  0  0  0
    5.6285   -5.6285    0.0000 O   0  0  0  0  0  0  0  0  0  0  0  0
    7.0773   -5.2402    0.0000 C   0  0  0  0  0  0  0  0  0  0  0  0
    4.9560   -3.1189    0.0000 C   0  0  0  0  0  0  0  0  0  0  0  0
    3.8954   -2.0583    0.0000 C   0  0  0  0  0  0  0  0  0  0  0  0
    4.2836   -0.6094    0.0000 O   0  0  0  0  0  0  0  0  0  0  0  0
    5.7325   -0.2211    0.0000 C   0  0  0  0  0  0  0  0  0  0  0  0
    2.4465   -2.4465    0.0000 C   0  0  0  0  0  0  0  0  0  0  0  0
    1.3858   -1.3858    0.0000 C   0  0  0  0  0  0  0  0  0  0  0  0
    1.9598    0.0000    0.0000 C   0  0  0  0  0  0  0  0  0  0  0  0
    1.3858    1.3858    0.0000 N   0  0  0  0  0  0  0  0  0  0  0  0
    2.4465    2.4465    0.0000 C   0  0  0  0  0  0  0  0  0  0  0  0
    2.0583    3.8954    0.0000 O   0  0  0  0  0  0  0  0  0  0  0  0
    3.8954    2.0583    0.0000 O   0  0  0  0  0  0  0  0  0  0  0  0
    4.9560    3.1189    0.0000 C   0  0  0  0  0  0  0  0  0  0  0  0
    6.4049    2.7307    0.0000 C   0  0  0  0  0  0  0  0  0  0  0  0
    6.7931    1.2818    0.0000 O   0  0  0  0  0  0  0  0  0  0  0  0
    7.4656    3.7913    0.0000 C   0  0  0  0  0  0  0  0  0  0  0  0
    7.0773    5.2402    0.0000 N   0  0  0  0  0  0  0  0  0  0  0  0
    5.6285    5.6285    0.0000 C   0  0  0  0  0  0  0  0  0  0  0  0
    4.1796    6.0167    0.0000 N   0  0  0  0  0  0  0  0  0  0  0  0
    3.1189    4.9560    0.0000 O   0  0  0  0  0  0  0  0  0  0  0  0
    8.9145    3.4031    0.0000 C   0  0  0  0  0  0  0  0  0  0  0  0
    9.3027    1.9542    0.0000 C   0  0  0  0  0  0  0  0  0  0  0  0
    8.2420    0.8936    0.0000 O   0  0  0  0  0  0  0  0  0  0  0  0
   10.7516    1.5660    0.0000 C   0  0  0  0  0  0  0  0  0  0  0  0
   11.8122    2.6267    0.0000 C   0  0  0  0  0  0  0  0  0  0  0  0
   11.4240    4.0755    0.0000 C   0  0  0  0  0  0  0  0  0  0  0  0
   12.4847    5.1362    0.0000 O   0  0  0  0  0  0  0  0  0  0  0  0
    9.9751    4.4638    0.0000 N   0  0  0  0  0  0  0  0  0  0  0  0
    9.5869    5.9127    0.0000 C   0  0  0  0  0  0  0  0  0  0  0  0
   10.6476    6.9733    0.0000 C   0  0  0  0  0  0  0  0  0  0  0  0
   12.0964    6.5851    0.0000 C   0  0  0  0  0  0  0  0  0  0  0  0
   13.1571    7.6458    0.0000 C   0  0  0  0  0  0  0  0  0  0  0  0
   12.7689    9.0946    0.0000 C   0  0  0  0  0  0  0  0  0  0  0  0
   13.8295   10.1553    0.0000 C   0  0  0  0  0  0  0  0  0  0  0  0
   15.2784    9.7671    0.0000 C   0  0  0  0  0  0  0  0  0  0  0  0
   16.3391   10.8277    0.0000 C   0  0  0  0  0  0  0  0  0  0  0  0
   15.9509   12.2766    0.0000 C   0  0  0  0  0  0  0  0  0  0  0  0
   14.5020   12.6649    0.0000 C   0  0  0  0  0  0  0  0  0  0  0  0
   13.4413   11.6042    0.0000 C   0  0  0  0  0  0  0  0  0  0  0  0
   11.9924   11.9924    0.0000 C   0  0  0  0  0  0  0  0  0  0  0  0
   10.8267   11.0484    0.0000 N   0  0  0  0  0  0  0  0  0  0  0  0
    9.5687   11.8654    0.0000 N   0  0  0  0  0  0  0  0  0  0  0  0
    9.9569   13.3143    0.0000 N   0  0  0  0  0  0  0  0  0  0  0  0
   11.4549   13.3928    0.0000 N   0  0  0  0  0  0  0  0  0  0  0  0
   11.3200    9.4829    0.0000 C   0  0  0  0  0  0  0  0  0  0  0  0
   10.2593    8.4222    0.0000 C   0  0  0  0  0  0  0  0  0  0  0  0
    0.0000    1.9598    0.0000 C   0  0  0  0  0  0  0  0  0  0  0  0
    0.0000    3.4598    0.0000 O   0  0  0  0  0  0  0  0  0  0  0  0
   -1.3858    1.3858    0.0000 N   0  0  0  0  0  0  0  0  0  0  0  0
   -1.9598    0.0000    0.0000 C   0  0  0  0  0  0  0  0  0  0  0  0
   -1.3858   -1.3858    0.0000 C   0  0  0  0  0  0  0  0  0  0  0  0
   -2.4465   -2.4465    0.0000 O   0  0  0  0  0  0  0  0  0  0  0  0
   -0.0000   -1.9598    0.0000 O   0  0  0  0  0  0  0  0  0  0  0  0
    2.0583   -3.8954    0.0000 C   0  0  0  0  0  0  0  0  0  0  0  0
  1  2  1  0
  2  3  1  0
  3  4  2  0
  4  5  1  0
  5  6  2  0
  6  7  1  0
  7  8  2  0
  8  9  1  0
  9 10  1  0
 10 11  1  0
 11 12  2  0
 12 13  1  0
 13 14  1  0
 12 15  1  0
 15 16  2  0
 16 17  1  0
 17 18  1  0
 16 19  1  0
 19 20  1  0
 20 21  1  0
 21 22  1  0
 22 23  1  0
 23 24  2  0
 23 25  1  0
 25 26  1  0
 26 27  1  0
 27 28  2  0
 27 29  1  0
 29 30  1  0
 30 31  2  0
 31 32  2  0
 32 33  1  0
 29 34  2  3
 34 35  1  0
 35 36  2  0
 35 37  1  0
 37 38  2  0
 38 39  1  0
 39 40  2  0
 39 41  1  0
 41 42  1  0
 42 43  1  0
 43 44  2  0
 44 45  1  0
 45 46  2  0
 46 47  1  0
 47 48  2  0
 48 49  1  0
 49 50  2  0
 50 51  1  0
 51 52  2  0
 52 53  1  0
 53 54  2  0
 54 55  1  0
 55 56  2  0
 56 57  1  0
 46 58  1  0
 58 59  2  0
 22 60  1  0
 60 61  2  0
 60 62  1  0
 62 63  1  0
 63 64  1  0
 64 65  2  0
 64 66  1  0
 19 67  2  0
  8  3  1  0
 67 11  1  0
 66 20  1  0
 41 34  1  0
 59 43  1  0
 52 47  1  0
 57 53  1  0
M  END
$$$$
