
     RDKit          2D

 43 47  0  0  0  0  0  0  0  0999 V2000
    8.6181  -14.9152    0.0000 C   0  0  0  0  0  0  0  0  0  0  0  0
    7.4046  -14.0335    0.0000 C   0  0  0  0  0  0  0  0  0  0  0  0
    7.5613  -12.5417    0.0000 C   0  0  0  0  0  0  0  0  0  0  0  0
    6.3478  -11.6600    0.0000 C   0  0  0  0  0  0  0  0  0  0  0  0
    6.5046  -10.1682    0.0000 C   0  0  0  0  0  0  0  0  0  0  0  0
    7.8037   -9.4182    0.0000 N   0  0  0  0  0  0  0  0  0  0  0  0
    7.4918   -7.9510    0.0000 C   0  0  0  0  0  0  0  0  0  0  0  0
    6.0000   -7.7942    0.0000 C   0  0  0  0  0  0  0  0  0  0  0  0
    5.2500   -6.4952    0.0000 C   0  0  0  0  0  0  0  0  0  0  0  0
    3.7500   -6.4952    0.0000 O   0  0  0  0  0  0  0  0  0  0  0  0
    3.0000   -5.1962    0.0000 C   0  0  0  0  0  0  0  0  0  0  0  0
    3.7500   -3.8971    0.0000 O   0  0  0  0  0  0  0  0  0  0  0  0
    1.5000   -5.1962    0.0000 C   0  0  0  0  0  0  0  0  0  0  0  0
    0.7500   -3.8971    0.0000 N   0  0  0  0  0  0  0  0  0  0  0  0
    1.5000   -2.5981    0.0000 C   0  0  0  0  0  0  0  0  0  0  0  0
    3.0000   -2.5981    0.0000 O   0  0  0  0  0  0  0  0  0  0  0  0
    0.7500   -1.2990    0.0000 C   0  0  0  0  0  0  0  0  0  0  0  0
    1.5000    0.0000    0.0000 C   0  0  0  0  0  0  0  0  0  0  0  0
    0.7500    1.2990    0.0000 C   0  0  0  0  0  0  0  0  0  0  0  0
   -0.7500    1.2990    0.0000 C   0  0  0  0  0  0  0  0  0  0  0  0
   -1.5000    0.0000    0.0000 C   0  0  0  0  0  0  0  0  0  0  0  0
   -0.7500   -1.2990    0.0000 C   0  0  0  0  0  0  0  0  0  0  0  0
    0.7500   -6.4952    0.0000 C   0  0  0  0  0  0  0  0  0  0  0  0
   -0.7500   -6.4952    0.0000 C   0  0  0  0  0  0  0  0  0  0  0  0
   -1.5000   -7.7942    0.0000 C   0  0  0  0  0  0  0  0  0  0  0  0
   -0.7500   -9.0933    0.0000 C   0  0  0  0  0  0  0  0  0  0  0  0
    0.7500   -9.0933    0.0000 C   0  0  0  0  0  0  0  0  0  0  0  0
    1.5000   -7.7942    0.0000 C   0  0  0  0  0  0  0  0  0  0  0  0
    5.3899   -9.1645    0.0000 N   0  0  0  0  0  0  0  0  0  0  0  0
    3.9227   -9.4764    0.0000 C   0  0  0  0  0  0  0  0  0  0  0  0
    3.4591  -10.9030    0.0000 C   0  0  0  0  0  0  0  0  0  0  0  0
    1.9919  -11.2149    0.0000 C   0  0  0  0  0  0  0  0  0  0  0  0
    1.5284  -12.6415    0.0000 C   0  0  0  0  0  0  0  0  0  0  0  0
    2.5321  -13.7562    0.0000 C   0  0  0  0  0  0  0  0  0  0  0  0
    2.0686  -15.1828    0.0000 O   0  0  0  0  0  0  0  0  0  0  0  0
    0.6014  -15.4946    0.0000 C   0  0  0  0  0  0  0  0  0  0  0  0
   -0.4023  -14.3799    0.0000 C   0  0  0  0  0  0  0  0  0  0  0  0
   -1.8696  -14.6918    0.0000 C   0  0  0  0  0  0  0  0  0  0  0  0
   -2.3331  -16.1184    0.0000 C   0  0  0  0  0  0  0  0  0  0  0  0
   -1.3294  -17.2331    0.0000 C   0  0  0  0  0  0  0  0  0  0  0  0
    0.1378  -16.9212    0.0000 C   0  0  0  0  0  0  0  0  0  0  0  0
    3.9993  -13.4443    0.0000 C   0  0  0  0  0  0  0  0  0  0  0  0
    4.4628  -12.0177    0.0000 C   0  0  0  0  0  0  0  0  0  0  0  0
  1  2  1  0
  2  3  1  0
  3  4  1  0
  4  5  1  0
  5  6  2  0
  6  7  1  0
  7  8  2  0
  8  9  1  0
  9 10  1  0
 10 11  1  0
 11 12  2  0
 11 13  1  0
 13 14  1  0
 14 15  1  0
 15 16  2  0
 15 17  1  0
 17 18  1  0
 18 19  1  0
 19 20  1  0
 20 21  1  0
 21 22  1  0
 13 23  1  0
 23 24  2  0
 24 25  1  0
 25 26  2  0
 26 27  1  0
 27 28  2  0
  8 29  1  0
 29 30  1  0
 30 31  1  0
 31 32  2  0
 32 33  1  0
 33 34  2  0
 34 35  1  0
 35 36  1  0
 36 37  2  0
 37 38  1  0
 38 39  2  0
 39 40  1  0
 40 41  2  0
 34 42  1  0
 42 43  2  0
 29  5  1  0
 43 31  1  0
 22 17  1  0
 28 23  1  0
 41 36  1  0
M  END
$$$$
