
     RDKit          2D

 29 32  0  0  0  0  0  0  0  0999 V2000
   10.0918    5.6816    0.0000 C   0  0  0  0  0  0  0  0  0  0  0  0
    8.9427    4.7174    0.0000 C   0  0  0  0  0  0  0  0  0  0  0  0
    7.5332    5.2304    0.0000 C   0  0  0  0  0  0  0  0  0  0  0  0
    6.3841    4.2662    0.0000 C   0  0  0  0  0  0  0  0  0  0  0  0
    4.9746    4.7793    0.0000 O   0  0  0  0  0  0  0  0  0  0  0  0
    3.8255    3.8151    0.0000 C   0  0  0  0  0  0  0  0  0  0  0  0
    2.3701    4.1780    0.0000 N   0  0  0  0  0  0  0  0  0  0  0  0
    1.5752    2.9059    0.0000 C   0  0  0  0  0  0  0  0  0  0  0  0
    2.9660    3.4678    0.0000 N   0  0  0  0  0  0  0  0  0  0  0  0
    3.9301    2.3187    0.0000 N   0  0  0  0  0  0  0  0  0  0  0  0
    3.1353    1.0467    0.0000 C   0  0  0  0  0  0  0  0  0  0  0  0
    3.6972   -0.3441    0.0000 O   0  0  0  0  0  0  0  0  0  0  0  0
    1.6798    1.4095    0.0000 C   0  0  0  0  0  0  0  0  0  0  0  0
    2.1929    0.0000    0.0000 C   0  0  0  0  0  0  0  0  0  0  0  0
    1.6798   -1.4095    0.0000 C   0  0  0  0  0  0  0  0  0  0  0  0
    0.3808   -2.1595    0.0000 C   0  0  0  0  0  0  0  0  0  0  0  0
   -1.0964   -1.8991    0.0000 C   0  0  0  0  0  0  0  0  0  0  0  0
   -2.0606   -0.7500    0.0000 C   0  0  0  0  0  0  0  0  0  0  0  0
   -2.0606    0.7500    0.0000 C   0  0  0  0  0  0  0  0  0  0  0  0
   -1.0964    1.8991    0.0000 C   0  0  0  0  0  0  0  0  0  0  0  0
   -1.8464    3.1981    0.0000 C   0  0  0  0  0  0  0  0  0  0  0  0
   -1.0964    4.4971    0.0000 C   0  0  0  0  0  0  0  0  0  0  0  0
   -1.8464    5.7962    0.0000 C   0  0  0  0  0  0  0  0  0  0  0  0
   -3.3464    5.7962    0.0000 C   0  0  0  0  0  0  0  0  0  0  0  0
   -4.0964    7.0952    0.0000 O   0  0  0  0  0  0  0  0  0  0  0  0
   -3.3464    8.3943    0.0000 C   0  0  0  0  0  0  0  0  0  0  0  0
   -4.0964    4.4971    0.0000 C   0  0  0  0  0  0  0  0  0  0  0  0
   -3.3464    3.1981    0.0000 C   0  0  0  0  0  0  0  0  0  0  0  0
    0.3808    2.1595    0.0000 C   0  0  0  0  0  0  0  0  0  0  0  0
  1  2  1  0
  2  3  1  0
  3  4  1  0
  4  5  1  0
  5  6  1  0
  6  7  2  0
  7  8  1  0
  8  9  2  0
  9 10  1  0
 10 11  1  0
 11 12  2  0
 11 13  1  0
 13 14  1  0
 14 15  1  0
 15 16  1  0
 16 17  1  0
 17 18  1  0
 18 19  1  0
 19 20  1  0
 20 21  1  0
 21 22  2  0
 22 23  1  0
 23 24  2  0
 24 25  1  0
 25 26  1  0
 24 27  1  0
 27 28  2  0
 20 29  1  0
 10  6  1  0
 29 13  1  0
 13  8  1  0
 28 21  1  0
M  END
$$$$
