
     RDKit          2D

 46 51  0  0  0  0  0  0  0  0999 V2000
   -2.7154    3.0155    0.0000 C   0  0  0  0  0  0  0  0  0  0  0  0
   -1.2784    3.4457    0.0000 O   0  0  0  0  0  0  0  0  0  0  0  0
   -0.9325    4.9052    0.0000 C   0  0  0  0  0  0  0  0  0  0  0  0
   -2.0236    5.9346    0.0000 C   0  0  0  0  0  0  0  0  0  0  0  0
   -1.6776    7.3942    0.0000 C   0  0  0  0  0  0  0  0  0  0  0  0
   -2.7687    8.4235    0.0000 O   0  0  0  0  0  0  0  0  0  0  0  0
   -0.2407    7.8244    0.0000 C   0  0  0  0  0  0  0  0  0  0  0  0
    0.1053    9.2840    0.0000 O   0  0  0  0  0  0  0  0  0  0  0  0
    1.5423    9.7142    0.0000 O   0  0  0  0  0  0  0  0  0  0  0  0
    1.8882   11.1737    0.0000 O   0  0  0  0  0  0  0  0  0  0  0  0
    3.3252   11.6039    0.0000 O   0  0  0  0  0  0  0  0  0  0  0  0
    3.6711   13.0635    0.0000 O   0  0  0  0  0  0  0  0  0  0  0  0
    5.1081   13.4937    0.0000 C   0  0  0  0  0  0  0  0  0  0  0  0
    6.1991   12.4643    0.0000 C   0  0  0  0  0  0  0  0  0  0  0  0
    7.6361   12.8945    0.0000 C   0  0  0  0  0  0  0  0  0  0  0  0
    8.7272   11.8652    0.0000 C   0  0  0  0  0  0  0  0  0  0  0  0
    8.3813   10.4056    0.0000 C   0  0  0  0  0  0  0  0  0  0  0  0
    9.4723    9.3762    0.0000 C   0  0  0  0  0  0  0  0  0  0  0  0
   10.9093    9.8065    0.0000 C   0  0  0  0  0  0  0  0  0  0  0  0
   11.2552   11.2660    0.0000 C   0  0  0  0  0  0  0  0  0  0  0  0
   10.1642   12.2954    0.0000 C   0  0  0  0  0  0  0  0  0  0  0  0
   10.5101   13.7550    0.0000 C   0  0  0  0  0  0  0  0  0  0  0  0
    9.5326   14.8927    0.0000 N   0  0  0  0  0  0  0  0  0  0  0  0
   10.3126   16.1740    0.0000 N   0  0  0  0  0  0  0  0  0  0  0  0
   11.7722   15.8280    0.0000 N   0  0  0  0  0  0  0  0  0  0  0  0
   11.8942   14.3330    0.0000 N   0  0  0  0  0  0  0  0  0  0  0  0
    7.9820   14.3541    0.0000 C   0  0  0  0  0  0  0  0  0  0  0  0
    6.8910   15.3835    0.0000 C   0  0  0  0  0  0  0  0  0  0  0  0
    5.4540   14.9533    0.0000 C   0  0  0  0  0  0  0  0  0  0  0  0
    0.8504    6.7950    0.0000 C   0  0  0  0  0  0  0  0  0  0  0  0
    0.5045    5.3355    0.0000 C   0  0  0  0  0  0  0  0  0  0  0  0
    1.5955    4.3061    0.0000 N   0  0  0  0  0  0  0  0  0  0  0  0
    3.0551    3.9602    0.0000 N   0  0  0  0  0  0  0  0  0  0  0  0
    2.0257    2.8691    0.0000 C   0  0  0  0  0  0  0  0  0  0  0  0
    1.6798    1.4095    0.0000 C   0  0  0  0  0  0  0  0  0  0  0  0
    3.1773    1.4968    0.0000 C   0  0  0  0  0  0  0  0  0  0  0  0
    3.8505    2.8372    0.0000 O   0  0  0  0  0  0  0  0  0  0  0  0
    4.0015    0.2435    0.0000 O   0  0  0  0  0  0  0  0  0  0  0  0
    2.1929    0.0000    0.0000 C   0  0  0  0  0  0  0  0  0  0  0  0
    1.6798   -1.4095    0.0000 C   0  0  0  0  0  0  0  0  0  0  0  0
    0.3808   -2.1595    0.0000 C   0  0  0  0  0  0  0  0  0  0  0  0
   -1.0964   -1.8991    0.0000 C   0  0  0  0  0  0  0  0  0  0  0  0
   -2.0606   -0.7500    0.0000 C   0  0  0  0  0  0  0  0  0  0  0  0
   -2.0606    0.7500    0.0000 C   0  0  0  0  0  0  0  0  0  0  0  0
   -1.0964    1.8991    0.0000 C   0  0  0  0  0  0  0  0  0  0  0  0
    0.3808    2.1595    0.0000 C   0  0  0  0  0  0  0  0  0  0  0  0
  1  2  1  0
  2  3  1  0
  3  4  2  0
  4  5  1  0
  5  6  1  0
  5  7  2  0
  7  8  1  0
  8  9  1  0
  9 10  1  0
 10 11  1  0
 11 12  1  0
 12 13  1  0
 13 14  2  0
 14 15  1  0
 15 16  1  0
 16 17  2  0
 17 18  1  0
 18 19  2  0
 19 20  1  0
 20 21  2  0
 21 22  1  0
 22 23  2  0
 23 24  1  0
 24 25  2  0
 25 26  1  0
 15 27  2  0
 27 28  1  0
 28 29  2  0
  7 30  1  0
 30 31  2  0
 31 32  1  0
 32 33  1  0
 33 34  2  0
 34 35  1  0
 35 36  1  0
 36 37  2  0
 36 38  1  0
 35 39  1  0
 39 40  1  0
 40 41  1  0
 41 42  1  0
 42 43  1  0
 43 44  1  0
 44 45  1  0
 45 46  1  0
 31  3  1  0
 34 32  1  0
 46 35  1  0
 29 13  1  0
 21 16  1  0
 26 22  1  0
M  END
$$$$
