
     RDKit          2D

 35 38  0  0  0  0  0  0  0  0999 V2000
   15.6395    1.7586    0.0000 C   0  0  0  0  0  0  0  0  0  0  0  0
   14.5515    2.7911    0.0000 C   0  0  0  0  0  0  0  0  0  0  0  0
   13.1132    2.3651    0.0000 C   0  0  0  0  0  0  0  0  0  0  0  0
   12.0252    3.3976    0.0000 C   0  0  0  0  0  0  0  0  0  0  0  0
   10.5869    2.9716    0.0000 C   0  0  0  0  0  0  0  0  0  0  0  0
    9.3969    3.8847    0.0000 N   0  0  0  0  0  0  0  0  0  0  0  0
    8.1607    3.0351    0.0000 C   0  0  0  0  0  0  0  0  0  0  0  0
    8.5867    1.5969    0.0000 C   0  0  0  0  0  0  0  0  0  0  0  0
    7.6736    0.4069    0.0000 C   0  0  0  0  0  0  0  0  0  0  0  0
    6.1864    0.6027    0.0000 N   0  0  0  0  0  0  0  0  0  0  0  0
    5.2733   -0.5874    0.0000 C   0  0  0  0  0  0  0  0  0  0  0  0
    3.7861   -0.3916    0.0000 N   0  0  0  0  0  0  0  0  0  0  0  0
    2.8730   -1.5816    0.0000 C   0  0  0  0  0  0  0  0  0  0  0  0
    1.3858   -1.3858    0.0000 C   0  0  0  0  0  0  0  0  0  0  0  0
    1.5816   -2.8730    0.0000 C   0  0  0  0  0  0  0  0  0  0  0  0
    0.3916   -3.7861    0.0000 O   0  0  0  0  0  0  0  0  0  0  0  0
    2.7873   -3.7653    0.0000 O   0  0  0  0  0  0  0  0  0  0  0  0
    1.9598    0.0000    0.0000 C   0  0  0  0  0  0  0  0  0  0  0  0
    1.3858    1.3858    0.0000 C   0  0  0  0  0  0  0  0  0  0  0  0
   -0.0000    1.9598    0.0000 C   0  0  0  0  0  0  0  0  0  0  0  0
   -1.3858    1.3858    0.0000 C   0  0  0  0  0  0  0  0  0  0  0  0
   -1.9598   -0.0000    0.0000 C   0  0  0  0  0  0  0  0  0  0  0  0
   -1.3858   -1.3858    0.0000 C   0  0  0  0  0  0  0  0  0  0  0  0
   -0.0000   -1.9598    0.0000 C   0  0  0  0  0  0  0  0  0  0  0  0
    3.4470   -2.9674    0.0000 N   0  0  0  0  0  0  0  0  0  0  0  0
    4.9342   -3.1632    0.0000 N   0  0  0  0  0  0  0  0  0  0  0  0
    5.8473   -1.9732    0.0000 C   0  0  0  0  0  0  0  0  0  0  0  0
   10.0862    1.5576    0.0000 N   0  0  0  0  0  0  0  0  0  0  0  0
   10.9358    0.3214    0.0000 C   0  0  0  0  0  0  0  0  0  0  0  0
   10.2901   -1.0324    0.0000 C   0  0  0  0  0  0  0  0  0  0  0  0
    8.7947   -1.1501    0.0000 C   0  0  0  0  0  0  0  0  0  0  0  0
    8.1489   -2.5040    0.0000 C   0  0  0  0  0  0  0  0  0  0  0  0
    8.9985   -3.7402    0.0000 C   0  0  0  0  0  0  0  0  0  0  0  0
   10.4939   -3.6225    0.0000 C   0  0  0  0  0  0  0  0  0  0  0  0
   11.1397   -2.2686    0.0000 C   0  0  0  0  0  0  0  0  0  0  0  0
  1  2  1  0
  2  3  1  0
  3  4  1  0
  4  5  1  0
  5  6  2  0
  6  7  1  0
  7  8  2  0
  8  9  1  0
  9 10  2  3
 10 11  1  0
 11 12  2  0
 12 13  1  0
 13 14  1  0
 14 15  1  0
 15 16  2  0
 15 17  1  0
 14 18  1  0
 18 19  1  0
 19 20  1  0
 20 21  1  0
 21 22  1  0
 22 23  1  0
 23 24  1  0
 13 25  2  0
 25 26  1  0
 26 27  2  0
  8 28  1  0
 28 29  1  0
 29 30  1  0
 30 31  2  0
 31 32  1  0
 32 33  2  0
 33 34  1  0
 34 35  2  0
 28  5  1  0
 35 30  1  0
 27 11  1  0
 24 14  1  0
M  END
$$$$
