
     RDKit          2D

 41 47  0  0  0  0  0  0  0  0999 V2000
    6.5010   14.0538    0.0000 C   0  0  0  0  0  0  0  0  0  0  0  0
    6.1892   12.5866    0.0000 C   0  0  0  0  0  0  0  0  0  0  0  0
    4.7626   12.1231    0.0000 C   0  0  0  0  0  0  0  0  0  0  0  0
    4.4507   10.6559    0.0000 C   0  0  0  0  0  0  0  0  0  0  0  0
    5.4544    9.5412    0.0000 N   0  0  0  0  0  0  0  0  0  0  0  0
    4.7044    8.2421    0.0000 C   0  0  0  0  0  0  0  0  0  0  0  0
    5.1679    6.8155    0.0000 C   0  0  0  0  0  0  0  0  0  0  0  0
    6.6352    6.5037    0.0000 C   0  0  0  0  0  0  0  0  0  0  0  0
    4.1643    5.7008    0.0000 C   0  0  0  0  0  0  0  0  0  0  0  0
    2.6970    6.0127    0.0000 C   0  0  0  0  0  0  0  0  0  0  0  0
    1.6933    4.8980    0.0000 C   0  0  0  0  0  0  0  0  0  0  0  0
    2.0052    3.4307    0.0000 C   0  0  0  0  0  0  0  0  0  0  0  0
    0.7062    2.6807    0.0000 N   0  0  0  0  0  0  0  0  0  0  0  0
    0.3943    1.2135    0.0000 C   0  0  0  0  0  0  0  0  0  0  0  0
    1.2760    0.0000    0.0000 C   0  0  0  0  0  0  0  0  0  0  0  0
    0.3943   -1.2135    0.0000 C   0  0  0  0  0  0  0  0  0  0  0  0
   -1.0323   -0.7500    0.0000 C   0  0  0  0  0  0  0  0  0  0  0  0
   -1.0323    0.7500    0.0000 N   0  0  0  0  0  0  0  0  0  0  0  0
   -2.1470    1.7537    0.0000 N   0  0  0  0  0  0  0  0  0  0  0  0
   -1.8351    3.2209    0.0000 C   0  0  0  0  0  0  0  0  0  0  0  0
   -0.4086    3.6844    0.0000 C   0  0  0  0  0  0  0  0  0  0  0  0
    0.2016    5.0548    0.0000 N   0  0  0  0  0  0  0  0  0  0  0  0
    2.2335    7.4393    0.0000 C   0  0  0  0  0  0  0  0  0  0  0  0
    3.2372    8.5540    0.0000 C   0  0  0  0  0  0  0  0  0  0  0  0
    3.0804   10.0458    0.0000 N   0  0  0  0  0  0  0  0  0  0  0  0
    1.7814   10.7958    0.0000 C   0  0  0  0  0  0  0  0  0  0  0  0
    1.7814   12.2958    0.0000 C   0  0  0  0  0  0  0  0  0  0  0  0
    3.0804   13.0458    0.0000 C   0  0  0  0  0  0  0  0  0  0  0  0
    3.0804   14.5458    0.0000 C   0  0  0  0  0  0  0  0  0  0  0  0
    1.7814   15.2958    0.0000 C   0  0  0  0  0  0  0  0  0  0  0  0
    1.7814   16.7958    0.0000 C   0  0  0  0  0  0  0  0  0  0  0  0
    3.0804   17.5458    0.0000 C   0  0  0  0  0  0  0  0  0  0  0  0
    3.0804   19.0458    0.0000 C   0  0  0  0  0  0  0  0  0  0  0  0
    1.7814   19.7958    0.0000 C   0  0  0  0  0  0  0  0  0  0  0  0
    0.4823   19.0458    0.0000 C   0  0  0  0  0  0  0  0  0  0  0  0
    0.4823   17.5458    0.0000 C   0  0  0  0  0  0  0  0  0  0  0  0
   -0.8167   16.7958    0.0000 C   0  0  0  0  0  0  0  0  0  0  0  0
   -0.8167   15.2958    0.0000 O   0  0  0  0  0  0  0  0  0  0  0  0
   -2.1157   17.5458    0.0000 O   0  0  0  0  0  0  0  0  0  0  0  0
    0.4823   14.5458    0.0000 C   0  0  0  0  0  0  0  0  0  0  0  0
    0.4823   13.0458    0.0000 C   0  0  0  0  0  0  0  0  0  0  0  0
  1  2  1  0
  2  3  1  0
  3  4  1  0
  4  5  2  0
  5  6  1  0
  6  7  2  0
  7  8  1  0
  7  9  1  0
  9 10  2  0
 10 11  1  0
 11 12  2  0
 12 13  1  0
 13 14  1  0
 14 15  2  0
 15 16  2  0
 16 17  1  0
 17 18  1  0
 18 19  1  0
 19 20  1  0
 20 21  1  0
 21 22  2  0
 10 23  1  0
 23 24  2  0
 24 25  1  0
 25 26  1  0
 26 27  1  0
 27 28  2  0
 28 29  1  0
 29 30  2  0
 30 31  1  0
 31 32  2  0
 32 33  1  0
 33 34  2  0
 34 35  1  0
 35 36  2  0
 36 37  1  0
 37 38  2  0
 37 39  1  0
 30 40  1  0
 40 41  2  0
 25  4  1  0
 41 27  1  0
 24  6  1  0
 36 31  1  0
 22 11  1  0
 21 13  1  0
 18 14  1  0
M  END
$$$$
