
     RDKit          2D

 59 64  0  0  0  0  0  0  0  0999 V2000
    1.2951  -10.4979    0.0000 C   0  0  0  0  0  0  0  0  0  0  0  0
    1.7749   -9.0767    0.0000 C   0  0  0  0  0  0  0  0  0  0  0  0
    0.7840   -7.9506    0.0000 C   0  0  0  0  0  0  0  0  0  0  0  0
    1.2638   -6.5294    0.0000 O   0  0  0  0  0  0  0  0  0  0  0  0
    0.2729   -5.4033    0.0000 C   0  0  0  0  0  0  0  0  0  0  0  0
   -1.0576   -6.0959    0.0000 C   0  0  0  0  0  0  0  0  0  0  0  0
   -2.5576   -6.0909    0.0000 C   0  0  0  0  0  0  0  0  0  0  0  0
   -3.8834   -5.3893    0.0000 C   0  0  0  0  0  0  0  0  0  0  0  0
   -4.8819   -6.5087    0.0000 C   0  0  0  0  0  0  0  0  0  0  0  0
   -6.3506   -6.2037    0.0000 C   0  0  0  0  0  0  0  0  0  0  0  0
   -4.7314   -4.1520    0.0000 N   0  0  0  0  0  0  0  0  0  0  0  0
   -4.9071   -2.6623    0.0000 C   0  0  0  0  0  0  0  0  0  0  0  0
   -6.3956   -2.4765    0.0000 C   0  0  0  0  0  0  0  0  0  0  0  0
   -6.9789   -1.0945    0.0000 C   0  0  0  0  0  0  0  0  0  0  0  0
   -4.3705   -1.2616    0.0000 C   0  0  0  0  0  0  0  0  0  0  0  0
   -3.2444   -0.2707    0.0000 C   0  0  0  0  0  0  0  0  0  0  0  0
   -3.7715    1.1337    0.0000 C   0  0  0  0  0  0  0  0  0  0  0  0
   -3.3724    2.5796    0.0000 N   0  0  0  0  0  0  0  0  0  0  0  0
   -4.6243    3.4060    0.0000 C   0  0  0  0  0  0  0  0  0  0  0  0
   -4.5346    4.9033    0.0000 C   0  0  0  0  0  0  0  0  0  0  0  0
   -5.7864    5.7296    0.0000 C   0  0  0  0  0  0  0  0  0  0  0  0
   -7.1280    5.0587    0.0000 C   0  0  0  0  0  0  0  0  0  0  0  0
   -8.3799    5.8850    0.0000 C   0  0  0  0  0  0  0  0  0  0  0  0
   -8.2901    7.3823    0.0000 N   0  0  0  0  0  0  0  0  0  0  0  0
   -7.0261    8.1898    0.0000 C   0  0  0  0  0  0  0  0  0  0  0  0
   -5.6298    7.6418    0.0000 C   0  0  0  0  0  0  0  0  0  0  0  0
   -4.4570    8.5771    0.0000 C   0  0  0  0  0  0  0  0  0  0  0  0
   -7.4034    9.6416    0.0000 N   0  0  0  0  0  0  0  0  0  0  0  0
   -8.9008    9.7313    0.0000 C   0  0  0  0  0  0  0  0  0  0  0  0
   -9.8360   10.9040    0.0000 C   0  0  0  0  0  0  0  0  0  0  0  0
   -9.2880   12.3004    0.0000 C   0  0  0  0  0  0  0  0  0  0  0  0
  -11.3192   10.6805    0.0000 C   0  0  0  0  0  0  0  0  0  0  0  0
  -11.8673    9.2842    0.0000 C   0  0  0  0  0  0  0  0  0  0  0  0
  -13.3505    9.0606    0.0000 C   0  0  0  0  0  0  0  0  0  0  0  0
  -10.9320    8.1114    0.0000 N   0  0  0  0  0  0  0  0  0  0  0  0
   -9.4488    8.3350    0.0000 C   0  0  0  0  0  0  0  0  0  0  0  0
   -7.2177    3.5613    0.0000 C   0  0  0  0  0  0  0  0  0  0  0  0
   -5.9658    2.7350    0.0000 C   0  0  0  0  0  0  0  0  0  0  0  0
   -2.1997    3.5149    0.0000 C   0  0  0  0  0  0  0  0  0  0  0  0
   -2.7267    4.9192    0.0000 O   0  0  0  0  0  0  0  0  0  0  0  0
   -0.7012    3.5822    0.0000 C   0  0  0  0  0  0  0  0  0  0  0  0
    0.5507    2.7558    0.0000 C   0  0  0  0  0  0  0  0  0  0  0  0
    1.7234    3.6910    0.0000 C   0  0  0  0  0  0  0  0  0  0  0  0
    1.0777    1.3515    0.0000 C   0  0  0  0  0  0  0  0  0  0  0  0
    1.7286    0.0000    0.0000 N   0  0  0  0  0  0  0  0  0  0  0  0
    1.0777   -1.3515    0.0000 C   0  0  0  0  0  0  0  0  0  0  0  0
   -0.3846   -1.6852    0.0000 C   0  0  0  0  0  0  0  0  0  0  0  0
   -1.5574   -0.7500    0.0000 C   0  0  0  0  0  0  0  0  0  0  0  0
   -1.5574    0.7500    0.0000 C   0  0  0  0  0  0  0  0  0  0  0  0
   -0.3846    1.6852    0.0000 C   0  0  0  0  0  0  0  0  0  0  0  0
    1.3150   -2.6833    0.0000 C   0  0  0  0  0  0  0  0  0  0  0  0
    2.8047   -2.5075    0.0000 N   0  0  0  0  0  0  0  0  0  0  0  0
    3.7017   -3.7097    0.0000 C   0  0  0  0  0  0  0  0  0  0  0  0
    3.1091   -5.0876    0.0000 O   0  0  0  0  0  0  0  0  0  0  0  0
    4.0062   -6.2898    0.0000 C   0  0  0  0  0  0  0  0  0  0  0  0
    5.1914   -3.5339    0.0000 O   0  0  0  0  0  0  0  0  0  0  0  0
    6.0885   -4.7361    0.0000 C   0  0  0  0  0  0  0  0  0  0  0  0
    1.1292   -4.1717    0.0000 C   0  0  0  0  0  0  0  0  0  0  0  0
    2.2355   -4.9454    0.0000 C   0  0  0  0  0  0  0  0  0  0  0  0
  1  2  2  0
  2  3  1  0
  3  4  1  0
  4  5  1  0
  5  6  2  0
  6  7  2  0
  7  8  2  0
  8  9  1  0
  9 10  1  0
  8 11  1  0
 11 12  2  3
 12 13  1  0
 13 14  1  0
 12 15  1  0
 15 16  2  3
 16 17  1  0
 17 18  1  0
 18 19  1  0
 19 20  2  0
 20 21  1  0
 21 22  2  0
 22 23  1  0
 23 24  1  0
 24 25  1  0
 25 26  1  0
 26 27  1  0
 25 28  2  0
 28 29  1  0
 29 30  2  0
 30 31  1  0
 30 32  1  0
 32 33  2  0
 33 34  1  0
 33 35  1  0
 35 36  2  0
 22 37  1  0
 37 38  2  0
 18 39  1  0
 39 40  2  0
 39 41  1  0
 41 42  2  3
 42 43  1  0
 42 44  1  0
 44 45  2  0
 45 46  1  0
 46 47  2  0
 47 48  2  0
 48 49  1  0
 49 50  2  0
 46 51  1  0
 51 52  1  0
 52 53  2  0
 53 54  1  0
 54 55  1  0
 53 56  1  0
 56 57  1  0
 51 58  2  3
 58 59  1  0
 58  5  1  0
 48 16  1  0
 38 19  1  0
 50 44  1  0
 36 24  1  0
 36 29  1  0
M  END
$$$$
