
     RDKit          2D

 83 92  0  0  0  0  0  0  0  0999 V2000
  -11.3302   -3.9619    0.0000 C   0  0  0  0  0  0  0  0  0  0  0  0
   -9.9037   -3.4984    0.0000 C   0  0  0  0  0  0  0  0  0  0  0  0
   -8.7889   -4.5021    0.0000 O   0  0  0  0  0  0  0  0  0  0  0  0
   -7.3624   -4.0385    0.0000 N   0  0  0  0  0  0  0  0  0  0  0  0
   -7.0505   -2.5713    0.0000 O   0  0  0  0  0  0  0  0  0  0  0  0
   -5.6239   -2.1078    0.0000 C   0  0  0  0  0  0  0  0  0  0  0  0
   -5.3120   -0.6406    0.0000 O   0  0  0  0  0  0  0  0  0  0  0  0
   -4.5092   -3.1115    0.0000 N   0  0  0  0  0  0  0  0  0  0  0  0
   -4.8211   -4.5787    0.0000 N   0  0  0  0  0  0  0  0  0  0  0  0
   -3.7063   -5.5824    0.0000 C   0  0  0  0  0  0  0  0  0  0  0  0
   -2.2798   -5.1189    0.0000 C   0  0  0  0  0  0  0  0  0  0  0  0
   -1.9679   -3.6517    0.0000 O   0  0  0  0  0  0  0  0  0  0  0  0
   -0.5413   -3.1881    0.0000 C   0  0  0  0  0  0  0  0  0  0  0  0
    0.5734   -4.1918    0.0000 O   0  0  0  0  0  0  0  0  0  0  0  0
   -0.2294   -1.7209    0.0000 N   0  0  0  0  0  0  0  0  0  0  0  0
    1.1971   -1.2574    0.0000 C   0  0  0  0  0  0  0  0  0  0  0  0
    2.3119   -2.2611    0.0000 O   0  0  0  0  0  0  0  0  0  0  0  0
    1.5090    0.2098    0.0000 O   0  0  0  0  0  0  0  0  0  0  0  0
    2.9356    0.6734    0.0000 C   0  0  0  0  0  0  0  0  0  0  0  0
    4.0503   -0.3303    0.0000 C   0  0  0  0  0  0  0  0  0  0  0  0
    5.4769    0.1332    0.0000 C   0  0  0  0  0  0  0  0  0  0  0  0
    6.5916   -0.8705    0.0000 C   0  0  0  0  0  0  0  0  0  0  0  0
    6.2798   -2.3377    0.0000 C   0  0  0  0  0  0  0  0  0  0  0  0
    7.3945   -3.3414    0.0000 C   0  0  0  0  0  0  0  0  0  0  0  0
    8.8211   -2.8779    0.0000 C   0  0  0  0  0  0  0  0  0  0  0  0
    9.1329   -1.4107    0.0000 C   0  0  0  0  0  0  0  0  0  0  0  0
    8.0182   -0.4070    0.0000 C   0  0  0  0  0  0  0  0  0  0  0  0
    8.3301    1.0602    0.0000 C   0  0  0  0  0  0  0  0  0  0  0  0
    7.1435    1.9778    0.0000 N   0  0  0  0  0  0  0  0  0  0  0  0
    7.1210    3.4777    0.0000 C   0  0  0  0  0  0  0  0  0  0  0  0
    5.7600    4.1082    0.0000 N   0  0  0  0  0  0  0  0  0  0  0  0
    5.6255    5.6022    0.0000 C   0  0  0  0  0  0  0  0  0  0  0  0
    6.8521    6.4656    0.0000 N   0  0  0  0  0  0  0  0  0  0  0  0
    6.7176    7.9595    0.0000 C   0  0  0  0  0  0  0  0  0  0  0  0
    7.9442    8.8230    0.0000 C   0  0  0  0  0  0  0  0  0  0  0  0
    7.8098   10.3169    0.0000 C   0  0  0  0  0  0  0  0  0  0  0  0
    6.4487   10.9475    0.0000 C   0  0  0  0  0  0  0  0  0  0  0  0
    5.2222   10.0840    0.0000 C   0  0  0  0  0  0  0  0  0  0  0  0
    5.3566    8.5901    0.0000 C   0  0  0  0  0  0  0  0  0  0  0  0
    4.2645    6.2327    0.0000 C   0  0  0  0  0  0  0  0  0  0  0  0
    4.1300    7.7266    0.0000 C   0  0  0  0  0  0  0  0  0  0  0  0
    2.7690    8.3572    0.0000 C   0  0  0  0  0  0  0  0  0  0  0  0
    1.5424    7.4938    0.0000 C   0  0  0  0  0  0  0  0  0  0  0  0
    0.1814    8.1243    0.0000 N   0  0  0  0  0  0  0  0  0  0  0  0
    1.6769    5.9998    0.0000 C   0  0  0  0  0  0  0  0  0  0  0  0
    3.0379    5.3693    0.0000 C   0  0  0  0  0  0  0  0  0  0  0  0
    8.2797    4.4303    0.0000 N   0  0  0  0  0  0  0  0  0  0  0  0
    9.7469    4.1185    0.0000 N   0  0  0  0  0  0  0  0  0  0  0  0
   10.4178    2.7769    0.0000 C   0  0  0  0  0  0  0  0  0  0  0  0
    9.7873    1.4159    0.0000 N   0  0  0  0  0  0  0  0  0  0  0  0
    5.7888    1.6004    0.0000 C   0  0  0  0  0  0  0  0  0  0  0  0
    4.6741    2.6041    0.0000 C   0  0  0  0  0  0  0  0  0  0  0  0
    3.2475    2.1406    0.0000 C   0  0  0  0  0  0  0  0  0  0  0  0
    2.1328    3.1443    0.0000 C   0  0  0  0  0  0  0  0  0  0  0  0
    0.7062    2.6807    0.0000 N   0  0  0  0  0  0  0  0  0  0  0  0
   -0.4086    3.6844    0.0000 C   0  0  0  0  0  0  0  0  0  0  0  0
   -0.0967    5.1517    0.0000 O   0  0  0  0  0  0  0  0  0  0  0  0
   -1.8351    3.2209    0.0000 N   0  0  0  0  0  0  0  0  0  0  0  0
   -2.9499    4.2246    0.0000 C   0  0  0  0  0  0  0  0  0  0  0  0
   -2.6380    5.6918    0.0000 C   0  0  0  0  0  0  0  0  0  0  0  0
   -3.7527    6.6955    0.0000 C   0  0  0  0  0  0  0  0  0  0  0  0
   -5.1793    6.2320    0.0000 C   0  0  0  0  0  0  0  0  0  0  0  0
   -6.2940    7.2357    0.0000 O   0  0  0  0  0  0  0  0  0  0  0  0
   -5.4912    4.7648    0.0000 C   0  0  0  0  0  0  0  0  0  0  0  0
   -4.3764    3.7611    0.0000 C   0  0  0  0  0  0  0  0  0  0  0  0
   -2.1470    1.7537    0.0000 C   0  0  0  0  0  0  0  0  0  0  0  0
   -3.5736    1.2902    0.0000 O   0  0  0  0  0  0  0  0  0  0  0  0
   -1.0323    0.7500    0.0000 C   0  0  0  0  0  0  0  0  0  0  0  0
    0.3943    1.2135    0.0000 C   0  0  0  0  0  0  0  0  0  0  0  0
    1.2760    0.0000    0.0000 S   0  0  0  0  0  0  0  0  0  0  0  0
    0.3943   -1.2135    0.0000 C   0  0  0  0  0  0  0  0  0  0  0  0
    0.8578   -2.6401    0.0000 C   0  0  0  0  0  0  0  0  0  0  0  0
    0.1537   -3.9646    0.0000 C   0  0  0  0  0  0  0  0  0  0  0  0
   -1.0323   -0.7500    0.0000 C   0  0  0  0  0  0  0  0  0  0  0  0
   -4.0182   -7.0496    0.0000 C   0  0  0  0  0  0  0  0  0  0  0  0
   -5.4448   -7.5132    0.0000 N   0  0  0  0  0  0  0  0  0  0  0  0
   -6.5595   -6.5095    0.0000 C   0  0  0  0  0  0  0  0  0  0  0  0
   -7.9861   -6.9730    0.0000 C   0  0  0  0  0  0  0  0  0  0  0  0
   -8.2980   -8.4402    0.0000 O   0  0  0  0  0  0  0  0  0  0  0  0
   -7.1832   -9.4439    0.0000 C   0  0  0  0  0  0  0  0  0  0  0  0
   -5.7567   -8.9804    0.0000 C   0  0  0  0  0  0  0  0  0  0  0  0
   -6.2476   -5.0422    0.0000 N   0  0  0  0  0  0  0  0  0  0  0  0
   -6.9053   -6.3904    0.0000 O   0  0  0  0  0  0  0  0  0  0  0  0
  1  2  1  0
  2  3  1  0
  3  4  1  0
  4  5  1  0
  5  6  1  0
  6  7  1  0
  6  8  2  0
  8  9  1  0
  9 10  1  0
 10 11  1  0
 11 12  1  0
 12 13  1  0
 13 14  2  0
 13 15  1  0
 15 16  1  0
 16 17  2  0
 16 18  1  0
 18 19  1  0
 19 20  2  0
 20 21  1  0
 21 22  1  0
 22 23  2  0
 23 24  1  0
 24 25  2  0
 25 26  1  0
 26 27  2  0
 27 28  1  0
 28 29  2  0
 29 30  1  0
 30 31  1  0
 31 32  1  0
 32 33  2  3
 33 34  1  0
 34 35  2  0
 35 36  1  0
 36 37  2  0
 37 38  1  0
 38 39  2  0
 32 40  1  0
 40 41  2  0
 41 42  1  0
 42 43  2  0
 43 44  1  0
 43 45  1  0
 45 46  2  0
 30 47  2  0
 47 48  1  0
 48 49  2  0
 49 50  2  0
 21 51  2  0
 51 52  1  0
 52 53  2  0
 53 54  1  0
 54 55  1  0
 55 56  1  0
 56 57  2  0
 56 58  1  0
 58 59  1  0
 59 60  2  0
 60 61  1  0
 61 62  2  0
 62 63  1  0
 62 64  1  0
 64 65  2  0
 58 66  1  0
 66 67  2  0
 66 68  1  0
 68 69  2  0
 69 70  1  0
 70 71  1  0
 71 72  1  0
 72 73  1  0
 71 74  2  0
 10 75  1  0
 75 76  1  0
 76 77  1  0
 77 78  1  0
 78 79  1  0
 79 80  1  0
 80 81  1  0
  9 82  1  0
 82 83  1  0
 82  4  1  0
 53 19  1  0
 69 55  1  0
 81 76  1  0
 27 22  1  0
 50 28  1  0
 65 59  1  0
 74 68  1  0
 39 34  1  0
 46 40  1  0
M  END
$$$$
