
     RDKit          2D

 45 50  0  0  0  0  0  0  0  0999 V2000
   -0.6194    7.6642    0.0000 C   0  0  0  0  0  0  0  0  0  0  0  0
   -1.1769    6.2716    0.0000 C   0  0  0  0  0  0  0  0  0  0  0  0
   -0.2497    5.0925    0.0000 C   0  0  0  0  0  0  0  0  0  0  0  0
   -0.8072    3.7000    0.0000 N   0  0  0  0  0  0  0  0  0  0  0  0
   -2.2919    3.4865    0.0000 C   0  0  0  0  0  0  0  0  0  0  0  0
   -3.2191    4.6656    0.0000 C   0  0  0  0  0  0  0  0  0  0  0  0
   -4.7039    4.4521    0.0000 C   0  0  0  0  0  0  0  0  0  0  0  0
   -5.2613    3.0596    0.0000 C   0  0  0  0  0  0  0  0  0  0  0  0
   -6.7461    2.8461    0.0000 C   0  0  0  0  0  0  0  0  0  0  0  0
   -7.6733    4.0252    0.0000 N   0  0  0  0  0  0  0  0  0  0  0  0
   -7.2644    5.4684    0.0000 C   0  0  0  0  0  0  0  0  0  0  0  0
   -5.8565    5.9859    0.0000 C   0  0  0  0  0  0  0  0  0  0  0  0
   -5.6008    7.4639    0.0000 C   0  0  0  0  0  0  0  0  0  0  0  0
   -8.5107    6.3032    0.0000 N   0  0  0  0  0  0  0  0  0  0  0  0
   -9.6897    5.3760    0.0000 C   0  0  0  0  0  0  0  0  0  0  0  0
  -11.1678    5.6318    0.0000 C   0  0  0  0  0  0  0  0  0  0  0  0
  -11.6853    7.0397    0.0000 C   0  0  0  0  0  0  0  0  0  0  0  0
  -12.1283    4.4796    0.0000 C   0  0  0  0  0  0  0  0  0  0  0  0
  -11.6108    3.0717    0.0000 C   0  0  0  0  0  0  0  0  0  0  0  0
  -12.5713    1.9196    0.0000 C   0  0  0  0  0  0  0  0  0  0  0  0
  -10.1328    2.8159    0.0000 N   0  0  0  0  0  0  0  0  0  0  0  0
   -9.1722    3.9681    0.0000 C   0  0  0  0  0  0  0  0  0  0  0  0
   -4.3341    1.8805    0.0000 C   0  0  0  0  0  0  0  0  0  0  0  0
   -2.8494    2.0940    0.0000 C   0  0  0  0  0  0  0  0  0  0  0  0
    0.1201    2.5209    0.0000 C   0  0  0  0  0  0  0  0  0  0  0  0
    1.5126    3.0784    0.0000 C   0  0  0  0  0  0  0  0  0  0  0  0
    1.3701    4.5716    0.0000 O   0  0  0  0  0  0  0  0  0  0  0  0
    2.9855    2.7945    0.0000 N   0  0  0  0  0  0  0  0  0  0  0  0
    4.0711    1.7594    0.0000 C   0  0  0  0  0  0  0  0  0  0  0  0
    4.4248    0.3017    0.0000 C   0  0  0  0  0  0  0  0  0  0  0  0
    5.3180   -0.9034    0.0000 C   0  0  0  0  0  0  0  0  0  0  0  0
    4.4479   -2.1253    0.0000 C   0  0  0  0  0  0  0  0  0  0  0  0
    2.7551   -2.0431    0.0000 C   0  0  0  0  0  0  0  0  0  0  0  0
    3.9342   -1.1158    0.0000 C   0  0  0  0  0  0  0  0  0  0  0  0
    5.1560   -1.9859    0.0000 C   0  0  0  0  0  0  0  0  0  0  0  0
    0.7500   -1.2990    0.0000 C   0  0  0  0  0  0  0  0  0  0  0  0
    1.5000    0.0000    0.0000 C   0  0  0  0  0  0  0  0  0  0  0  0
    0.7500    1.2990    0.0000 C   0  0  0  0  0  0  0  0  0  0  0  0
   -0.7500    1.2990    0.0000 C   0  0  0  0  0  0  0  0  0  0  0  0
   -1.5000    0.0000    0.0000 C   0  0  0  0  0  0  0  0  0  0  0  0
   -0.7500   -1.2990    0.0000 C   0  0  0  0  0  0  0  0  0  0  0  0
   -1.5000   -2.5981    0.0000 C   0  0  0  0  0  0  0  0  0  0  0  0
   -0.7500   -3.8971    0.0000 O   0  0  0  0  0  0  0  0  0  0  0  0
   -3.0000   -2.5981    0.0000 O   0  0  0  0  0  0  0  0  0  0  0  0
   -3.7500   -3.8971    0.0000 C   0  0  0  0  0  0  0  0  0  0  0  0
  1  2  2  0
  2  3  1  0
  3  4  1  0
  4  5  1  0
  5  6  2  0
  6  7  1  0
  7  8  2  0
  8  9  1  0
  9 10  1  0
 10 11  1  0
 11 12  1  0
 12 13  1  0
 11 14  2  0
 14 15  1  0
 15 16  2  0
 16 17  1  0
 16 18  1  0
 18 19  2  0
 19 20  1  0
 19 21  1  0
 21 22  2  0
  8 23  1  0
 23 24  2  0
  4 25  1  0
 25 26  1  0
 26 27  2  0
 26 28  1  0
 28 29  2  3
 29 30  1  0
 30 31  2  0
 31 32  1  0
 32 33  2  0
 33 34  1  0
 34 35  2  0
 33 36  1  0
 36 37  2  0
 37 38  1  0
 38 39  2  0
 39 40  1  0
 40 41  2  0
 41 42  1  0
 42 43  2  0
 42 44  1  0
 44 45  1  0
 24  5  1  0
 39 25  1  0
 22 10  1  0
 34 30  1  0
 41 36  1  0
 22 15  1  0
M  END
$$$$
