
     RDKit          2D

 40 43  0  0  0  0  0  0  0  0999 V2000
  -16.7156  -12.4559    0.0000 C   0  0  0  0  0  0  0  0  0  0  0  0
  -15.7119  -13.5706    0.0000 C   0  0  0  0  0  0  0  0  0  0  0  0
  -14.2447  -13.2588    0.0000 C   0  0  0  0  0  0  0  0  0  0  0  0
  -13.2410  -14.3735    0.0000 C   0  0  0  0  0  0  0  0  0  0  0  0
  -11.7737  -14.0616    0.0000 C   0  0  0  0  0  0  0  0  0  0  0  0
  -10.6590  -15.0653    0.0000 N   0  0  0  0  0  0  0  0  0  0  0  0
   -9.3600  -14.3153    0.0000 C   0  0  0  0  0  0  0  0  0  0  0  0
   -9.6718  -12.8481    0.0000 C   0  0  0  0  0  0  0  0  0  0  0  0
   -8.6682  -11.7334    0.0000 O   0  0  0  0  0  0  0  0  0  0  0  0
   -9.1317  -10.3068    0.0000 N   0  0  0  0  0  0  0  0  0  0  0  0
  -10.5583   -9.8433    0.0000 C   0  0  0  0  0  0  0  0  0  0  0  0
  -10.5583   -8.3433    0.0000 N   0  0  0  0  0  0  0  0  0  0  0  0
   -9.1317   -7.8797    0.0000 N   0  0  0  0  0  0  0  0  0  0  0  0
   -8.2500   -9.0933    0.0000 C   0  0  0  0  0  0  0  0  0  0  0  0
   -6.7500   -9.0933    0.0000 C   0  0  0  0  0  0  0  0  0  0  0  0
   -6.0000   -7.7942    0.0000 C   0  0  0  0  0  0  0  0  0  0  0  0
   -4.5000   -7.7942    0.0000 C   0  0  0  0  0  0  0  0  0  0  0  0
   -3.7500   -6.4952    0.0000 C   0  0  0  0  0  0  0  0  0  0  0  0
   -2.2500   -6.4952    0.0000 C   0  0  0  0  0  0  0  0  0  0  0  0
   -1.5000   -5.1962    0.0000 C   0  0  0  0  0  0  0  0  0  0  0  0
   -0.0000   -5.1962    0.0000 C   0  0  0  0  0  0  0  0  0  0  0  0
    0.7500   -3.8971    0.0000 C   0  0  0  0  0  0  0  0  0  0  0  0
    1.5000   -2.5981    0.0000 C   0  0  0  0  0  0  0  0  0  0  0  0
    3.0000   -2.5981    0.0000 C   0  0  0  0  0  0  0  0  0  0  0  0
    3.7500   -1.2990    0.0000 C   0  0  0  0  0  0  0  0  0  0  0  0
    5.2500   -1.2990    0.0000 C   0  0  0  0  0  0  0  0  0  0  0  0
    6.0000   -2.5981    0.0000 C   0  0  0  0  0  0  0  0  0  0  0  0
    7.5000   -2.5981    0.0000 O   0  0  0  0  0  0  0  0  0  0  0  0
    5.2500   -3.8971    0.0000 C   0  0  0  0  0  0  0  0  0  0  0  0
    3.7500   -3.8971    0.0000 C   0  0  0  0  0  0  0  0  0  0  0  0
    2.0490   -4.6471    0.0000 N   0  0  0  0  0  0  0  0  0  0  0  0
    2.0490   -6.1471    0.0000 C   0  0  0  0  0  0  0  0  0  0  0  0
    3.2626   -7.0288    0.0000 C   0  0  0  0  0  0  0  0  0  0  0  0
    2.7990   -8.4554    0.0000 N   0  0  0  0  0  0  0  0  0  0  0  0
    1.2990   -8.4554    0.0000 C   0  0  0  0  0  0  0  0  0  0  0  0
    0.8355   -7.0288    0.0000 N   0  0  0  0  0  0  0  0  0  0  0  0
   -0.5490   -3.1471    0.0000 C   0  0  0  0  0  0  0  0  0  0  0  0
   -1.8481   -3.8971    0.0000 O   0  0  0  0  0  0  0  0  0  0  0  0
   -0.5490   -1.6471    0.0000 O   0  0  0  0  0  0  0  0  0  0  0  0
  -11.1636  -12.6913    0.0000 N   0  0  0  0  0  0  0  0  0  0  0  0
  1  2  1  0
  2  3  1  0
  3  4  1  0
  4  5  1  0
  5  6  2  0
  6  7  1  0
  7  8  2  0
  8  9  1  0
  9 10  1  0
 10 11  1  0
 11 12  2  0
 12 13  1  0
 13 14  2  0
 14 15  1  0
 15 16  1  0
 16 17  1  0
 17 18  1  0
 18 19  1  0
 19 20  1  0
 20 21  1  0
 21 22  1  0
 22 23  1  0
 23 24  1  0
 24 25  2  0
 25 26  1  0
 26 27  2  0
 27 28  1  0
 27 29  1  0
 29 30  2  0
 22 31  1  0
 31 32  1  0
 32 33  2  0
 33 34  1  0
 34 35  2  0
 35 36  1  0
 22 37  1  0
 37 38  2  0
 37 39  1  0
  8 40  1  0
 40  5  1  0
 14 10  1  0
 30 24  1  0
 36 32  1  0
M  END
$$$$
