
     RDKit          2D

 50 54  0  0  0  0  0  0  0  0999 V2000
   10.1181    4.5229    0.0000 C   0  0  0  0  0  0  0  0  0  0  0  0
    8.9046    3.6412    0.0000 C   0  0  0  0  0  0  0  0  0  0  0  0
    9.0613    2.1494    0.0000 C   0  0  0  0  0  0  0  0  0  0  0  0
    7.8478    1.2677    0.0000 C   0  0  0  0  0  0  0  0  0  0  0  0
    8.0046   -0.2241    0.0000 C   0  0  0  0  0  0  0  0  0  0  0  0
    6.8899   -1.2278    0.0000 N   0  0  0  0  0  0  0  0  0  0  0  0
    7.5000   -2.5981    0.0000 C   0  0  0  0  0  0  0  0  0  0  0  0
    6.7500   -3.8971    0.0000 C   0  0  0  0  0  0  0  0  0  0  0  0
    5.2500   -3.8971    0.0000 C   0  0  0  0  0  0  0  0  0  0  0  0
    5.2500   -5.3971    0.0000 C   0  0  0  0  0  0  0  0  0  0  0  0
    5.2500   -2.3971    0.0000 C   0  0  0  0  0  0  0  0  0  0  0  0
    3.7500   -3.8971    0.0000 C   0  0  0  0  0  0  0  0  0  0  0  0
    3.0000   -5.1962    0.0000 O   0  0  0  0  0  0  0  0  0  0  0  0
    3.0000   -2.5981    0.0000 N   0  0  0  0  0  0  0  0  0  0  0  0
    1.5000   -2.5981    0.0000 C   0  0  0  0  0  0  0  0  0  0  0  0
    0.7500   -3.8971    0.0000 C   0  0  0  0  0  0  0  0  0  0  0  0
   -0.7500   -3.8971    0.0000 O   0  0  0  0  0  0  0  0  0  0  0  0
    1.5000   -5.1962    0.0000 O   0  0  0  0  0  0  0  0  0  0  0  0
    0.7500   -6.4952    0.0000 C   0  0  0  0  0  0  0  0  0  0  0  0
    1.5000   -7.7942    0.0000 C   0  0  0  0  0  0  0  0  0  0  0  0
   -0.7500   -6.4952    0.0000 C   0  0  0  0  0  0  0  0  0  0  0  0
    0.7500   -1.2990    0.0000 C   0  0  0  0  0  0  0  0  0  0  0  0
    1.5000    0.0000    0.0000 C   0  0  0  0  0  0  0  0  0  0  0  0
    0.7500    1.2990    0.0000 C   0  0  0  0  0  0  0  0  0  0  0  0
   -0.7500    1.2990    0.0000 C   0  0  0  0  0  0  0  0  0  0  0  0
   -1.5000    0.0000    0.0000 C   0  0  0  0  0  0  0  0  0  0  0  0
   -0.7500   -1.2990    0.0000 C   0  0  0  0  0  0  0  0  0  0  0  0
    8.9918   -2.4413    0.0000 C   0  0  0  0  0  0  0  0  0  0  0  0
    9.9955   -3.5560    0.0000 C   0  0  0  0  0  0  0  0  0  0  0  0
   11.4946   -3.6084    0.0000 O   0  0  0  0  0  0  0  0  0  0  0  0
    9.5320   -4.9826    0.0000 O   0  0  0  0  0  0  0  0  0  0  0  0
    9.3037   -0.9741    0.0000 N   0  0  0  0  0  0  0  0  0  0  0  0
   10.6740   -0.3640    0.0000 C   0  0  0  0  0  0  0  0  0  0  0  0
   11.8875   -1.2456    0.0000 C   0  0  0  0  0  0  0  0  0  0  0  0
   11.7307   -2.7374    0.0000 C   0  0  0  0  0  0  0  0  0  0  0  0
   12.9442   -3.6191    0.0000 C   0  0  0  0  0  0  0  0  0  0  0  0
   14.3145   -3.0090    0.0000 C   0  0  0  0  0  0  0  0  0  0  0  0
   15.5281   -3.8907    0.0000 C   0  0  0  0  0  0  0  0  0  0  0  0
   15.3713   -5.3825    0.0000 C   0  0  0  0  0  0  0  0  0  0  0  0
   16.5848   -6.2641    0.0000 C   0  0  0  0  0  0  0  0  0  0  0  0
   17.9551   -5.6540    0.0000 C   0  0  0  0  0  0  0  0  0  0  0  0
   18.1119   -4.1622    0.0000 C   0  0  0  0  0  0  0  0  0  0  0  0
   16.8984   -3.2806    0.0000 C   0  0  0  0  0  0  0  0  0  0  0  0
   17.0552   -1.7888    0.0000 C   0  0  0  0  0  0  0  0  0  0  0  0
   15.9405   -0.7851    0.0000 N   0  0  0  0  0  0  0  0  0  0  0  0
   16.5506    0.5852    0.0000 N   0  0  0  0  0  0  0  0  0  0  0  0
   18.0424    0.4284    0.0000 N   0  0  0  0  0  0  0  0  0  0  0  0
   18.3542   -1.0388    0.0000 N   0  0  0  0  0  0  0  0  0  0  0  0
   14.4713   -1.5172    0.0000 C   0  0  0  0  0  0  0  0  0  0  0  0
   13.2578   -0.6355    0.0000 C   0  0  0  0  0  0  0  0  0  0  0  0
  1  2  1  0
  2  3  1  0
  3  4  1  0
  4  5  1  0
  5  6  2  0
  6  7  1  0
  7  8  1  0
  8  9  1  0
  9 10  1  0
  9 11  1  0
  9 12  1  0
 12 13  2  0
 12 14  1  0
 14 15  1  0
 15 16  1  0
 16 17  2  0
 16 18  1  0
 18 19  1  0
 19 20  1  0
 19 21  1  0
 15 22  1  0
 22 23  2  0
 23 24  1  0
 24 25  2  0
 25 26  1  0
 26 27  2  0
  7 28  2  0
 28 29  1  0
 29 30  2  0
 29 31  1  0
 28 32  1  0
 32 33  1  0
 33 34  1  0
 34 35  2  0
 35 36  1  0
 36 37  2  0
 37 38  1  0
 38 39  2  0
 39 40  1  0
 40 41  2  0
 41 42  1  0
 42 43  2  0
 43 44  1  0
 44 45  2  0
 45 46  1  0
 46 47  2  0
 47 48  1  0
 37 49  1  0
 49 50  2  0
 32  5  1  0
 50 34  1  0
 27 22  1  0
 43 38  1  0
 48 44  1  0
M  END
$$$$
