
     RDKit          2D

 29 33  0  0  0  0  0  0  0  0999 V2000
    2.7760    0.0000    0.0000 O   0  0  0  0  0  0  0  0  0  0  0  0
    1.2760    0.0000    0.0000 C   0  0  0  0  0  0  0  0  0  0  0  0
    0.3943    1.2135    0.0000 C   0  0  0  0  0  0  0  0  0  0  0  0
   -1.0323    0.7500    0.0000 C   0  0  0  0  0  0  0  0  0  0  0  0
   -1.0323   -0.7500    0.0000 C   0  0  0  0  0  0  0  0  0  0  0  0
   -1.0323   -2.2500    0.0000 C   0  0  0  0  0  0  0  0  0  0  0  0
   -2.4589   -2.7135    0.0000 C   0  0  0  0  0  0  0  0  0  0  0  0
   -3.3405   -1.5000    0.0000 C   0  0  0  0  0  0  0  0  0  0  0  0
   -4.8405   -1.5000    0.0000 O   0  0  0  0  0  0  0  0  0  0  0  0
   -2.4589   -0.2865    0.0000 N   0  0  0  0  0  0  0  0  0  0  0  0
   -2.9224    1.1401    0.0000 C   0  0  0  0  0  0  0  0  0  0  0  0
   -4.3896    1.4520    0.0000 C   0  0  0  0  0  0  0  0  0  0  0  0
   -4.8531    2.8786    0.0000 C   0  0  0  0  0  0  0  0  0  0  0  0
   -6.3204    3.1904    0.0000 C   0  0  0  0  0  0  0  0  0  0  0  0
   -7.3241    2.0757    0.0000 C   0  0  0  0  0  0  0  0  0  0  0  0
   -8.7913    2.3876    0.0000 C   0  0  0  0  0  0  0  0  0  0  0  0
   -9.2548    3.8142    0.0000 C   0  0  0  0  0  0  0  0  0  0  0  0
  -10.7220    4.1260    0.0000 C   0  0  0  0  0  0  0  0  0  0  0  0
  -11.7257    3.0113    0.0000 C   0  0  0  0  0  0  0  0  0  0  0  0
  -11.2622    1.5847    0.0000 C   0  0  0  0  0  0  0  0  0  0  0  0
   -9.7950    1.2729    0.0000 C   0  0  0  0  0  0  0  0  0  0  0  0
   -9.3315   -0.1537    0.0000 C   0  0  0  0  0  0  0  0  0  0  0  0
   -7.9049   -0.6172    0.0000 N   0  0  0  0  0  0  0  0  0  0  0  0
   -7.9049   -2.1172    0.0000 N   0  0  0  0  0  0  0  0  0  0  0  0
   -9.3315   -2.5808    0.0000 N   0  0  0  0  0  0  0  0  0  0  0  0
  -10.2131   -1.3672    0.0000 N   0  0  0  0  0  0  0  0  0  0  0  0
   -6.8605    0.6491    0.0000 C   0  0  0  0  0  0  0  0  0  0  0  0
   -5.3933    0.3373    0.0000 C   0  0  0  0  0  0  0  0  0  0  0  0
    0.3943   -1.2135    0.0000 O   0  0  0  0  0  0  0  0  0  0  0  0
  1  2  2  0
  2  3  1  0
  3  4  1  0
  4  5  1  0
  5  6  1  0
  6  7  1  0
  7  8  1  0
  8  9  2  0
  8 10  1  0
 10 11  1  0
 11 12  1  0
 12 13  2  0
 13 14  1  0
 14 15  2  0
 15 16  1  0
 16 17  2  0
 17 18  1  0
 18 19  2  0
 19 20  1  0
 20 21  2  0
 21 22  1  0
 22 23  2  0
 23 24  1  0
 24 25  2  0
 25 26  1  0
 15 27  1  0
 27 28  2  0
  5 29  1  0
 29  2  1  0
 10  5  1  0
 28 12  1  0
 21 16  1  0
 26 22  1  0
M  END
$$$$
