
     RDKit          2D

 43 47  0  0  0  0  0  0  0  0999 V2000
   -6.5317   -4.2266    0.0000 C   0  0  0  0  0  0  0  0  0  0  0  0
   -5.0470   -4.4401    0.0000 C   0  0  0  0  0  0  0  0  0  0  0  0
   -4.1197   -3.2610    0.0000 C   0  0  0  0  0  0  0  0  0  0  0  0
   -4.6772   -1.8684    0.0000 C   0  0  0  0  0  0  0  0  0  0  0  0
   -2.6350   -3.4744    0.0000 C   0  0  0  0  0  0  0  0  0  0  0  0
   -2.4215   -4.9592    0.0000 C   0  0  0  0  0  0  0  0  0  0  0  0
   -1.4392   -6.0928    0.0000 C   0  0  0  0  0  0  0  0  0  0  0  0
   -2.2502   -7.3547    0.0000 O   0  0  0  0  0  0  0  0  0  0  0  0
    0.0000   -6.5154    0.0000 N   0  0  0  0  0  0  0  0  0  0  0  0
    0.0000   -8.0154    0.0000 C   0  0  0  0  0  0  0  0  0  0  0  0
   -1.2990   -8.7654    0.0000 C   0  0  0  0  0  0  0  0  0  0  0  0
   -1.2990  -10.2654    0.0000 C   0  0  0  0  0  0  0  0  0  0  0  0
    0.0000  -11.0154    0.0000 C   0  0  0  0  0  0  0  0  0  0  0  0
    0.0000  -12.5154    0.0000 C   0  0  0  0  0  0  0  0  0  0  0  0
   -1.2990  -13.2654    0.0000 N   0  0  0  0  0  0  0  0  0  0  0  0
   -2.6694  -12.6553    0.0000 C   0  0  0  0  0  0  0  0  0  0  0  0
   -2.9812  -11.1881    0.0000 C   0  0  0  0  0  0  0  0  0  0  0  0
   -4.4078  -10.7246    0.0000 C   0  0  0  0  0  0  0  0  0  0  0  0
   -3.6731  -13.7700    0.0000 N   0  0  0  0  0  0  0  0  0  0  0  0
   -2.9231  -15.0691    0.0000 C   0  0  0  0  0  0  0  0  0  0  0  0
   -3.3866  -16.4956    0.0000 C   0  0  0  0  0  0  0  0  0  0  0  0
   -4.8538  -16.8075    0.0000 C   0  0  0  0  0  0  0  0  0  0  0  0
   -2.3829  -17.6104    0.0000 C   0  0  0  0  0  0  0  0  0  0  0  0
   -0.9157  -17.2985    0.0000 C   0  0  0  0  0  0  0  0  0  0  0  0
    0.0880  -18.4132    0.0000 C   0  0  0  0  0  0  0  0  0  0  0  0
   -0.4521  -15.8719    0.0000 N   0  0  0  0  0  0  0  0  0  0  0  0
   -1.4558  -14.7572    0.0000 C   0  0  0  0  0  0  0  0  0  0  0  0
    1.2990  -10.2654    0.0000 C   0  0  0  0  0  0  0  0  0  0  0  0
    1.2990   -8.7654    0.0000 C   0  0  0  0  0  0  0  0  0  0  0  0
    1.4392   -6.0928    0.0000 C   0  0  0  0  0  0  0  0  0  0  0  0
    2.2502   -7.3547    0.0000 O   0  0  0  0  0  0  0  0  0  0  0  0
    2.4215   -4.9592    0.0000 C   0  0  0  0  0  0  0  0  0  0  0  0
    2.6350   -3.4744    0.0000 C   0  0  0  0  0  0  0  0  0  0  0  0
    4.1197   -3.2610    0.0000 O   0  0  0  0  0  0  0  0  0  0  0  0
    5.0470   -4.4401    0.0000 C   0  0  0  0  0  0  0  0  0  0  0  0
    2.0119   -2.1100    0.0000 C   0  0  0  0  0  0  0  0  0  0  0  0
    0.7500   -1.2990    0.0000 C   0  0  0  0  0  0  0  0  0  0  0  0
    1.5000    0.0000    0.0000 C   0  0  0  0  0  0  0  0  0  0  0  0
    0.7500    1.2990    0.0000 C   0  0  0  0  0  0  0  0  0  0  0  0
   -0.7500    1.2990    0.0000 C   0  0  0  0  0  0  0  0  0  0  0  0
   -1.5000    0.0000    0.0000 C   0  0  0  0  0  0  0  0  0  0  0  0
   -0.7500   -1.2990    0.0000 C   0  0  0  0  0  0  0  0  0  0  0  0
   -2.0119   -2.1100    0.0000 C   0  0  0  0  0  0  0  0  0  0  0  0
  1  2  1  0
  2  3  2  3
  3  4  1  0
  3  5  1  0
  5  6  2  3
  6  7  1  0
  7  8  2  0
  7  9  1  0
  9 10  1  0
 10 11  2  0
 11 12  1  0
 12 13  2  0
 13 14  1  0
 14 15  1  0
 15 16  1  0
 16 17  1  0
 17 18  1  0
 16 19  2  0
 19 20  1  0
 20 21  2  0
 21 22  1  0
 21 23  1  0
 23 24  2  0
 24 25  1  0
 24 26  1  0
 26 27  2  0
 13 28  1  0
 28 29  2  0
  9 30  1  0
 30 31  2  0
 30 32  1  0
 32 33  2  3
 33 34  1  0
 34 35  1  0
 33 36  1  0
 36 37  2  3
 37 38  1  0
 38 39  2  0
 39 40  1  0
 40 41  2  0
 41 42  1  0
 42 43  2  3
 43  5  1  0
 29 10  1  0
 42 37  1  0
 27 15  1  0
 27 20  1  0
M  END
$$$$
