
     RDKit          2D

 31 32  0  0  0  0  0  0  0  0999 V2000
    4.2630   12.3343    0.0000 C   0  0  0  0  0  0  0  0  0  0  0  0
    4.5406   10.8602    0.0000 C   0  0  0  0  0  0  0  0  0  0  0  0
    3.4028    9.8827    0.0000 C   0  0  0  0  0  0  0  0  0  0  0  0
    3.6805    8.4086    0.0000 C   0  0  0  0  0  0  0  0  0  0  0  0
    2.5427    7.4311    0.0000 C   0  0  0  0  0  0  0  0  0  0  0  0
    1.0831    7.7770    0.0000 N   0  0  0  0  0  0  0  0  0  0  0  0
    0.3031    6.4958    0.0000 C   0  0  0  0  0  0  0  0  0  0  0  0
    1.2806    5.3580    0.0000 C   0  0  0  0  0  0  0  0  0  0  0  0
    0.9347    3.8985    0.0000 N   0  0  0  0  0  0  0  0  0  0  0  0
    2.0257    2.8691    0.0000 C   0  0  0  0  0  0  0  0  0  0  0  0
    3.4627    3.2993    0.0000 N   0  0  0  0  0  0  0  0  0  0  0  0
    4.5538    2.2699    0.0000 C   0  0  0  0  0  0  0  0  0  0  0  0
    5.9908    2.7002    0.0000 C   0  0  0  0  0  0  0  0  0  0  0  0
    6.3367    4.1597    0.0000 O   0  0  0  0  0  0  0  0  0  0  0  0
    7.0818    1.6708    0.0000 O   0  0  0  0  0  0  0  0  0  0  0  0
    4.2079    0.8104    0.0000 C   0  0  0  0  0  0  0  0  0  0  0  0
    2.7709    0.3802    0.0000 O   0  0  0  0  0  0  0  0  0  0  0  0
    5.2989   -0.2190    0.0000 O   0  0  0  0  0  0  0  0  0  0  0  0
    1.6798    1.4095    0.0000 C   0  0  0  0  0  0  0  0  0  0  0  0
    0.3808    2.1595    0.0000 C   0  0  0  0  0  0  0  0  0  0  0  0
    0.0178    3.6150    0.0000 O   0  0  0  0  0  0  0  0  0  0  0  0
   -0.9183    1.4095    0.0000 O   0  0  0  0  0  0  0  0  0  0  0  0
    0.5888    0.3802    0.0000 C   0  0  0  0  0  0  0  0  0  0  0  0
    0.4146   -1.1097    0.0000 C   0  0  0  0  0  0  0  0  0  0  0  0
    1.2389   -2.3629    0.0000 C   0  0  0  0  0  0  0  0  0  0  0  0
    2.6759   -2.7931    0.0000 C   0  0  0  0  0  0  0  0  0  0  0  0
    4.0532   -2.1990    0.0000 C   0  0  0  0  0  0  0  0  0  0  0  0
    4.7264   -0.8585    0.0000 C   0  0  0  0  0  0  0  0  0  0  0  0
    4.3805    0.6010    0.0000 C   0  0  0  0  0  0  0  0  0  0  0  0
    3.1773    1.4968    0.0000 C   0  0  0  0  0  0  0  0  0  0  0  0
    2.6648    5.9361    0.0000 N   0  0  0  0  0  0  0  0  0  0  0  0
  1  2  1  0
  2  3  1  0
  3  4  1  0
  4  5  1  0
  5  6  2  0
  6  7  1  0
  7  8  2  0
  8  9  1  0
  9 10  2  3
 10 11  1  0
 11 12  2  0
 12 13  1  0
 13 14  2  0
 13 15  1  0
 12 16  1  0
 16 17  2  0
 16 18  1  0
 10 19  1  0
 19 20  1  0
 20 21  2  0
 20 22  1  0
 19 23  1  0
 23 24  1  0
 24 25  1  0
 25 26  1  0
 26 27  1  0
 27 28  1  0
 28 29  1  0
 29 30  1  0
  8 31  1  0
 31  5  1  0
 30 19  1  0
M  END
$$$$
