
     RDKit          2D

 51 57  0  0  0  0  0  0  0  0999 V2000
    7.3857    0.1309    0.0000 C   0  0  0  0  0  0  0  0  0  0  0  0
    5.9761    0.6440    0.0000 C   0  0  0  0  0  0  0  0  0  0  0  0
    5.7156    2.1212    0.0000 O   0  0  0  0  0  0  0  0  0  0  0  0
    4.3061    2.6342    0.0000 C   0  0  0  0  0  0  0  0  0  0  0  0
    3.3419    3.7833    0.0000 C   0  0  0  0  0  0  0  0  0  0  0  0
    2.8289    2.3737    0.0000 C   0  0  0  0  0  0  0  0  0  0  0  0
    1.6798    1.4095    0.0000 N   0  0  0  0  0  0  0  0  0  0  0  0
    2.1929    0.0000    0.0000 N   0  0  0  0  0  0  0  0  0  0  0  0
    1.6798   -1.4095    0.0000 N   0  0  0  0  0  0  0  0  0  0  0  0
    0.3808   -2.1595    0.0000 N   0  0  0  0  0  0  0  0  0  0  0  0
   -1.0964   -1.8991    0.0000 C   0  0  0  0  0  0  0  0  0  0  0  0
   -1.8464   -3.1981    0.0000 C   0  0  0  0  0  0  0  0  0  0  0  0
   -3.3464   -3.1981    0.0000 C   0  0  0  0  0  0  0  0  0  0  0  0
   -4.0964   -4.4971    0.0000 C   0  0  0  0  0  0  0  0  0  0  0  0
   -3.3464   -5.7962    0.0000 C   0  0  0  0  0  0  0  0  0  0  0  0
   -1.8464   -5.7962    0.0000 C   0  0  0  0  0  0  0  0  0  0  0  0
   -1.0964   -4.4971    0.0000 C   0  0  0  0  0  0  0  0  0  0  0  0
    0.4036   -4.4971    0.0000 C   0  0  0  0  0  0  0  0  0  0  0  0
    1.1536   -5.7962    0.0000 C   0  0  0  0  0  0  0  0  0  0  0  0
    2.6536   -5.7962    0.0000 C   0  0  0  0  0  0  0  0  0  0  0  0
    3.4036   -4.4971    0.0000 C   0  0  0  0  0  0  0  0  0  0  0  0
    2.6536   -3.1981    0.0000 C   0  0  0  0  0  0  0  0  0  0  0  0
    1.1536   -3.1981    0.0000 C   0  0  0  0  0  0  0  0  0  0  0  0
   -2.0606   -0.7500    0.0000 C   0  0  0  0  0  0  0  0  0  0  0  0
   -2.0606    0.7500    0.0000 N   0  0  0  0  0  0  0  0  0  0  0  0
   -3.4701    1.2630    0.0000 C   0  0  0  0  0  0  0  0  0  0  0  0
   -3.7306    2.7402    0.0000 C   0  0  0  0  0  0  0  0  0  0  0  0
   -5.1402    3.2533    0.0000 C   0  0  0  0  0  0  0  0  0  0  0  0
   -6.2892    2.2891    0.0000 C   0  0  0  0  0  0  0  0  0  0  0  0
   -7.6988    2.8021    0.0000 C   0  0  0  0  0  0  0  0  0  0  0  0
   -7.9592    4.2793    0.0000 N   0  0  0  0  0  0  0  0  0  0  0  0
   -6.9172    5.3583    0.0000 C   0  0  0  0  0  0  0  0  0  0  0  0
   -5.4318    5.1496    0.0000 C   0  0  0  0  0  0  0  0  0  0  0  0
   -4.5084    6.3316    0.0000 C   0  0  0  0  0  0  0  0  0  0  0  0
   -7.6215    6.6828    0.0000 N   0  0  0  0  0  0  0  0  0  0  0  0
   -9.0987    6.4223    0.0000 C   0  0  0  0  0  0  0  0  0  0  0  0
  -10.2807    7.3458    0.0000 C   0  0  0  0  0  0  0  0  0  0  0  0
  -10.0719    8.8312    0.0000 C   0  0  0  0  0  0  0  0  0  0  0  0
  -11.6715    6.7839    0.0000 C   0  0  0  0  0  0  0  0  0  0  0  0
  -11.8802    5.2985    0.0000 C   0  0  0  0  0  0  0  0  0  0  0  0
  -13.2710    4.7366    0.0000 C   0  0  0  0  0  0  0  0  0  0  0  0
  -10.6982    4.3750    0.0000 N   0  0  0  0  0  0  0  0  0  0  0  0
   -9.3074    4.9369    0.0000 C   0  0  0  0  0  0  0  0  0  0  0  0
   -6.0288    0.8119    0.0000 C   0  0  0  0  0  0  0  0  0  0  0  0
   -4.6192    0.2988    0.0000 C   0  0  0  0  0  0  0  0  0  0  0  0
   -1.0964    1.8991    0.0000 C   0  0  0  0  0  0  0  0  0  0  0  0
   -1.8464    3.1981    0.0000 O   0  0  0  0  0  0  0  0  0  0  0  0
    0.3808    2.1595    0.0000 C   0  0  0  0  0  0  0  0  0  0  0  0
    0.6413    3.6368    0.0000 C   0  0  0  0  0  0  0  0  0  0  0  0
    2.0508    4.1498    0.0000 C   0  0  0  0  0  0  0  0  0  0  0  0
   -0.5078    4.6009    0.0000 C   0  0  0  0  0  0  0  0  0  0  0  0
  1  2  1  0
  2  3  1  0
  3  4  1  0
  4  5  2  0
  5  6  2  0
  6  7  1  0
  7  8  1  0
  8  9  2  3
  9 10  1  0
 10 11  2  3
 11 12  1  0
 12 13  2  0
 13 14  1  0
 14 15  2  0
 15 16  1  0
 16 17  2  0
 17 18  1  0
 18 19  2  0
 19 20  1  0
 20 21  2  0
 21 22  1  0
 22 23  2  0
 11 24  1  0
 24 25  1  0
 25 26  1  0
 26 27  2  0
 27 28  1  0
 28 29  2  0
 29 30  1  0
 30 31  1  0
 31 32  1  0
 32 33  1  0
 33 34  1  0
 32 35  2  0
 35 36  1  0
 36 37  2  0
 37 38  1  0
 37 39  1  0
 39 40  2  0
 40 41  1  0
 40 42  1  0
 42 43  2  0
 29 44  1  0
 44 45  2  0
 25 46  1  0
 46 47  2  0
 46 48  1  0
 48 49  2  0
 49 50  1  0
 49 51  1  0
  6  4  1  0
 48  7  1  0
 17 12  1  0
 23 18  1  0
 45 26  1  0
 43 31  1  0
 43 36  1  0
M  END
$$$$
