
     RDKit          2D

 50 55  0  0  0  0  0  0  0  0999 V2000
   -3.0000  -15.5885    0.0000 C   0  0  0  0  0  0  0  0  0  0  0  0
   -1.5000  -15.5885    0.0000 O   0  0  0  0  0  0  0  0  0  0  0  0
   -0.7500  -14.2894    0.0000 C   0  0  0  0  0  0  0  0  0  0  0  0
   -1.5000  -12.9904    0.0000 C   0  0  0  0  0  0  0  0  0  0  0  0
   -0.7500  -11.6913    0.0000 C   0  0  0  0  0  0  0  0  0  0  0  0
    0.7500  -11.6913    0.0000 C   0  0  0  0  0  0  0  0  0  0  0  0
    1.5000  -10.3923    0.0000 C   0  0  0  0  0  0  0  0  0  0  0  0
    3.0000  -10.3923    0.0000 N   0  0  0  0  0  0  0  0  0  0  0  0
    3.7500  -11.6913    0.0000 C   0  0  0  0  0  0  0  0  0  0  0  0
    3.0000  -12.9904    0.0000 O   0  0  0  0  0  0  0  0  0  0  0  0
    5.2500  -11.6913    0.0000 C   0  0  0  0  0  0  0  0  0  0  0  0
    6.0000  -12.9904    0.0000 C   0  0  0  0  0  0  0  0  0  0  0  0
    7.2990  -13.7404    0.0000 C   0  0  0  0  0  0  0  0  0  0  0  0
    6.0000  -14.4904    0.0000 C   0  0  0  0  0  0  0  0  0  0  0  0
    5.2500  -15.7894    0.0000 C   0  0  0  0  0  0  0  0  0  0  0  0
    6.0000  -17.0885    0.0000 C   0  0  0  0  0  0  0  0  0  0  0  0
    5.2500  -18.3875    0.0000 C   0  0  0  0  0  0  0  0  0  0  0  0
    7.5000  -17.0885    0.0000 C   0  0  0  0  0  0  0  0  0  0  0  0
    0.7500   -9.0933    0.0000 C   0  0  0  0  0  0  0  0  0  0  0  0
   -0.7500   -9.0933    0.0000 O   0  0  0  0  0  0  0  0  0  0  0  0
    1.5000   -7.7942    0.0000 C   0  0  0  0  0  0  0  0  0  0  0  0
    0.7500   -6.4952    0.0000 C   0  0  0  0  0  0  0  0  0  0  0  0
    1.5000   -5.1962    0.0000 C   0  0  0  0  0  0  0  0  0  0  0  0
    3.0000   -5.1962    0.0000 O   0  0  0  0  0  0  0  0  0  0  0  0
    0.7500   -3.8971    0.0000 O   0  0  0  0  0  0  0  0  0  0  0  0
    1.5000   -2.5981    0.0000 N   0  0  0  0  0  0  0  0  0  0  0  0
    0.7500   -1.2990    0.0000 C   0  0  0  0  0  0  0  0  0  0  0  0
    1.5000    0.0000    0.0000 O   0  0  0  0  0  0  0  0  0  0  0  0
    0.7500    1.2990    0.0000 C   0  0  0  0  0  0  0  0  0  0  0  0
   -0.7500    1.2990    0.0000 C   0  0  0  0  0  0  0  0  0  0  0  0
   -1.5000    0.0000    0.0000 C   0  0  0  0  0  0  0  0  0  0  0  0
   -0.7500   -1.2990    0.0000 C   0  0  0  0  0  0  0  0  0  0  0  0
   -2.1766   -0.8355    0.0000 C   0  0  0  0  0  0  0  0  0  0  0  0
   -2.1766    0.6645    0.0000 C   0  0  0  0  0  0  0  0  0  0  0  0
   -3.3901    1.5462    0.0000 C   0  0  0  0  0  0  0  0  0  0  0  0
   -4.6036    2.4278    0.0000 C   0  0  0  0  0  0  0  0  0  0  0  0
   -5.9740    1.8177    0.0000 C   0  0  0  0  0  0  0  0  0  0  0  0
   -6.1307    0.3260    0.0000 C   0  0  0  0  0  0  0  0  0  0  0  0
   -7.5011   -0.2841    0.0000 C   0  0  0  0  0  0  0  0  0  0  0  0
   -8.7146    0.5975    0.0000 C   0  0  0  0  0  0  0  0  0  0  0  0
   -8.5578    2.0893    0.0000 C   0  0  0  0  0  0  0  0  0  0  0  0
   -7.1875    2.6994    0.0000 C   0  0  0  0  0  0  0  0  0  0  0  0
   -7.0307    4.1912    0.0000 C   0  0  0  0  0  0  0  0  0  0  0  0
   -8.2442    5.0729    0.0000 C   0  0  0  0  0  0  0  0  0  0  0  0
   -8.0874    6.5647    0.0000 C   0  0  0  0  0  0  0  0  0  0  0  0
   -6.7171    7.1748    0.0000 C   0  0  0  0  0  0  0  0  0  0  0  0
   -5.5036    6.2931    0.0000 C   0  0  0  0  0  0  0  0  0  0  0  0
   -5.6604    4.8013    0.0000 C   0  0  0  0  0  0  0  0  0  0  0  0
    1.5000  -12.9904    0.0000 C   0  0  0  0  0  0  0  0  0  0  0  0
    0.7500  -14.2894    0.0000 C   0  0  0  0  0  0  0  0  0  0  0  0
  1  2  1  0
  2  3  1  0
  3  4  2  0
  4  5  1  0
  5  6  2  0
  6  7  1  0
  7  8  1  0
  8  9  1  0
  9 10  2  0
  9 11  1  0
 11 12  1  0
 12 13  2  0
 13 14  2  0
 14 15  1  0
 15 16  2  0
 16 17  1  0
 16 18  1  0
  7 19  1  0
 19 20  2  0
 19 21  1  0
 21 22  1  0
 22 23  1  0
 23 24  2  0
 23 25  1  0
 25 26  1  0
 26 27  2  3
 27 28  1  0
 28 29  1  0
 29 30  1  0
 30 31  1  0
 31 32  1  0
 32 33  2  0
 33 34  1  0
 34 35  2  0
 35 36  2  0
 36 37  1  0
 37 38  2  0
 38 39  1  0
 39 40  2  0
 40 41  1  0
 41 42  2  0
 42 43  1  0
 43 44  2  0
 44 45  1  0
 45 46  2  0
 46 47  1  0
 47 48  2  0
  6 49  1  0
 49 50  2  0
 50  3  1  0
 14 12  1  0
 32 27  1  0
 42 37  1  0
 48 43  1  0
 34 30  1  0
M  END
$$$$
