
     RDKit          2D

 37 38  0  0  0  0  0  0  0  0999 V2000
    4.0981   -4.7942    0.0000 C   0  0  0  0  0  0  0  0  0  0  0  0
    2.7990   -5.5442    0.0000 C   0  0  0  0  0  0  0  0  0  0  0  0
    2.7990   -7.0442    0.0000 C   0  0  0  0  0  0  0  0  0  0  0  0
    1.5000   -7.7942    0.0000 C   0  0  0  0  0  0  0  0  0  0  0  0
    0.2010   -8.5442    0.0000 C   0  0  0  0  0  0  0  0  0  0  0  0
    0.2010  -10.0442    0.0000 C   0  0  0  0  0  0  0  0  0  0  0  0
   -1.0981  -10.7942    0.0000 C   0  0  0  0  0  0  0  0  0  0  0  0
   -1.0981  -12.2942    0.0000 N   0  0  0  0  0  0  0  0  0  0  0  0
    2.2500   -9.0933    0.0000 O   0  0  0  0  0  0  0  0  0  0  0  0
    3.7500   -9.0933    0.0000 C   0  0  0  0  0  0  0  0  0  0  0  0
    3.5932   -7.6015    0.0000 N   0  0  0  0  0  0  0  0  0  0  0  0
    4.8067   -6.7198    0.0000 C   0  0  0  0  0  0  0  0  0  0  0  0
    6.1771   -7.3299    0.0000 O   0  0  0  0  0  0  0  0  0  0  0  0
    4.6499   -5.2280    0.0000 C   0  0  0  0  0  0  0  0  0  0  0  0
    5.8635   -4.3463    0.0000 N   0  0  0  0  0  0  0  0  0  0  0  0
    5.7067   -2.8546    0.0000 C   0  0  0  0  0  0  0  0  0  0  0  0
    4.3364   -2.2445    0.0000 O   0  0  0  0  0  0  0  0  0  0  0  0
    6.9202   -1.9729    0.0000 C   0  0  0  0  0  0  0  0  0  0  0  0
    6.7634   -0.4811    0.0000 C   0  0  0  0  0  0  0  0  0  0  0  0
    8.2905   -2.5830    0.0000 C   0  0  0  0  0  0  0  0  0  0  0  0
    5.2172   -8.7814    0.0000 C   0  0  0  0  0  0  0  0  0  0  0  0
    5.9672  -10.0804    0.0000 C   0  0  0  0  0  0  0  0  0  0  0  0
    4.9635  -11.1952    0.0000 O   0  0  0  0  0  0  0  0  0  0  0  0
    3.5932  -10.5850    0.0000 C   0  0  0  0  0  0  0  0  0  0  0  0
    2.2942  -11.3350    0.0000 O   0  0  0  0  0  0  0  0  0  0  0  0
    0.7500   -6.4952    0.0000 C   0  0  0  0  0  0  0  0  0  0  0  0
   -0.7500   -6.4952    0.0000 O   0  0  0  0  0  0  0  0  0  0  0  0
    1.5000   -5.1962    0.0000 N   0  0  0  0  0  0  0  0  0  0  0  0
    0.7500   -3.8971    0.0000 C   0  0  0  0  0  0  0  0  0  0  0  0
    1.5000   -2.5981    0.0000 C   0  0  0  0  0  0  0  0  0  0  0  0
    0.7500   -1.2990    0.0000 C   0  0  0  0  0  0  0  0  0  0  0  0
    1.5000    0.0000    0.0000 C   0  0  0  0  0  0  0  0  0  0  0  0
    0.7500    1.2990    0.0000 C   0  0  0  0  0  0  0  0  0  0  0  0
   -0.7500    1.2990    0.0000 C   0  0  0  0  0  0  0  0  0  0  0  0
   -1.5000    2.5981    0.0000 O   0  0  0  0  0  0  0  0  0  0  0  0
   -1.5000    0.0000    0.0000 C   0  0  0  0  0  0  0  0  0  0  0  0
   -0.7500   -1.2990    0.0000 C   0  0  0  0  0  0  0  0  0  0  0  0
  1  2  1  0
  2  3  1  0
  3  4  1  0
  4  5  1  0
  5  6  1  0
  6  7  1  0
  7  8  1  0
  4  9  1  0
  9 10  1  0
 10 11  1  0
 11 12  1  0
 12 13  2  0
 12 14  1  0
 14 15  1  0
 15 16  1  0
 16 17  2  0
 16 18  1  0
 18 19  1  0
 18 20  1  0
 10 21  1  0
 21 22  1  0
 22 23  1  0
 23 24  1  0
 24 25  2  0
  4 26  1  0
 26 27  2  0
 26 28  1  0
 28 29  1  0
 29 30  1  0
 30 31  1  0
 31 32  2  0
 32 33  1  0
 33 34  2  0
 34 35  1  0
 34 36  1  0
 36 37  2  0
 24 10  1  0
 37 31  1  0
M  END
$$$$
