
     RDKit          2D

 81 89  0  0  0  0  0  0  0  0999 V2000
    3.5260   -1.2990    0.0000 C   0  0  0  0  0  0  0  0  0  0  0  0
    2.7760    0.0000    0.0000 C   0  0  0  0  0  0  0  0  0  0  0  0
    1.2760    0.0000    0.0000 C   0  0  0  0  0  0  0  0  0  0  0  0
    0.3943    1.2135    0.0000 C   0  0  0  0  0  0  0  0  0  0  0  0
   -1.0323    0.7500    0.0000 C   0  0  0  0  0  0  0  0  0  0  0  0
   -1.0323   -0.7500    0.0000 C   0  0  0  0  0  0  0  0  0  0  0  0
    0.3943   -1.2135    0.0000 S   0  0  0  0  0  0  0  0  0  0  0  0
   -2.3313   -1.5000    0.0000 N   0  0  0  0  0  0  0  0  0  0  0  0
   -2.3313   -3.0000    0.0000 C   0  0  0  0  0  0  0  0  0  0  0  0
   -3.6304   -3.7500    0.0000 C   0  0  0  0  0  0  0  0  0  0  0  0
   -4.9294   -3.0000    0.0000 C   0  0  0  0  0  0  0  0  0  0  0  0
   -6.2284   -3.7500    0.0000 C   0  0  0  0  0  0  0  0  0  0  0  0
   -6.2284   -5.2500    0.0000 C   0  0  0  0  0  0  0  0  0  0  0  0
   -7.5275   -6.0000    0.0000 C   0  0  0  0  0  0  0  0  0  0  0  0
   -8.8265   -5.2500    0.0000 C   0  0  0  0  0  0  0  0  0  0  0  0
  -10.1256   -6.0000    0.0000 C   0  0  0  0  0  0  0  0  0  0  0  0
  -10.1256   -7.5000    0.0000 C   0  0  0  0  0  0  0  0  0  0  0  0
   -8.8265   -8.2500    0.0000 C   0  0  0  0  0  0  0  0  0  0  0  0
   -7.5275   -7.5000    0.0000 C   0  0  0  0  0  0  0  0  0  0  0  0
   -6.2284   -8.2500    0.0000 C   0  0  0  0  0  0  0  0  0  0  0  0
   -4.9891   -7.4050    0.0000 N   0  0  0  0  0  0  0  0  0  0  0  0
   -3.5557   -7.8472    0.0000 O   0  0  0  0  0  0  0  0  0  0  0  0
   -3.0077   -9.2435    0.0000 N   0  0  0  0  0  0  0  0  0  0  0  0
   -1.5119   -9.3556    0.0000 O   0  0  0  0  0  0  0  0  0  0  0  0
   -0.8611  -10.7070    0.0000 C   0  0  0  0  0  0  0  0  0  0  0  0
    0.6347  -10.8191    0.0000 C   0  0  0  0  0  0  0  0  0  0  0  0
    1.2856  -12.1706    0.0000 C   0  0  0  0  0  0  0  0  0  0  0  0
    2.7814  -12.2827    0.0000 C   0  0  0  0  0  0  0  0  0  0  0  0
    3.4322  -13.6341    0.0000 C   0  0  0  0  0  0  0  0  0  0  0  0
    4.9280  -13.7462    0.0000 C   0  0  0  0  0  0  0  0  0  0  0  0
    5.7730  -12.5068    0.0000 C   0  0  0  0  0  0  0  0  0  0  0  0
    7.2688  -12.6189    0.0000 O   0  0  0  0  0  0  0  0  0  0  0  0
    5.1221  -11.1554    0.0000 C   0  0  0  0  0  0  0  0  0  0  0  0
    5.9671   -9.9160    0.0000 O   0  0  0  0  0  0  0  0  0  0  0  0
    7.4629  -10.0281    0.0000 C   0  0  0  0  0  0  0  0  0  0  0  0
    3.6263  -11.0433    0.0000 C   0  0  0  0  0  0  0  0  0  0  0  0
    1.4797   -9.5797    0.0000 C   0  0  0  0  0  0  0  0  0  0  0  0
    2.9755   -9.6918    0.0000 C   0  0  0  0  0  0  0  0  0  0  0  0
    3.8205   -8.4525    0.0000 C   0  0  0  0  0  0  0  0  0  0  0  0
    3.1697   -7.1010    0.0000 C   0  0  0  0  0  0  0  0  0  0  0  0
    4.0146   -5.8617    0.0000 O   0  0  0  0  0  0  0  0  0  0  0  0
    1.6739   -6.9889    0.0000 C   0  0  0  0  0  0  0  0  0  0  0  0
    0.8289   -8.2283    0.0000 C   0  0  0  0  0  0  0  0  0  0  0  0
   -3.7577  -10.5425    0.0000 N   0  0  0  0  0  0  0  0  0  0  0  0
   -5.2410  -10.7661    0.0000 C   0  0  0  0  0  0  0  0  0  0  0  0
   -6.3405   -9.7458    0.0000 N   0  0  0  0  0  0  0  0  0  0  0  0
   -4.9294   -6.0000    0.0000 C   0  0  0  0  0  0  0  0  0  0  0  0
   -3.6304   -5.2500    0.0000 C   0  0  0  0  0  0  0  0  0  0  0  0
   -2.3313   -6.0000    0.0000 O   0  0  0  0  0  0  0  0  0  0  0  0
   -1.0323   -5.2500    0.0000 C   0  0  0  0  0  0  0  0  0  0  0  0
   -0.2823   -6.5490    0.0000 O   0  0  0  0  0  0  0  0  0  0  0  0
   -1.7823   -3.9510    0.0000 O   0  0  0  0  0  0  0  0  0  0  0  0
    0.2668   -4.5000    0.0000 O   0  0  0  0  0  0  0  0  0  0  0  0
   -3.6304   -0.7500    0.0000 C   0  0  0  0  0  0  0  0  0  0  0  0
   -4.9294   -1.5000    0.0000 O   0  0  0  0  0  0  0  0  0  0  0  0
   -3.6304    0.7500    0.0000 N   0  0  0  0  0  0  0  0  0  0  0  0
   -4.9294    1.5000    0.0000 C   0  0  0  0  0  0  0  0  0  0  0  0
   -4.9294    3.0000    0.0000 C   0  0  0  0  0  0  0  0  0  0  0  0
   -3.6304    3.7500    0.0000 O   0  0  0  0  0  0  0  0  0  0  0  0
   -6.2284    3.7500    0.0000 C   0  0  0  0  0  0  0  0  0  0  0  0
   -7.5275    3.0000    0.0000 C   0  0  0  0  0  0  0  0  0  0  0  0
   -8.8265    3.7500    0.0000 C   0  0  0  0  0  0  0  0  0  0  0  0
  -10.1256    3.0000    0.0000 O   0  0  0  0  0  0  0  0  0  0  0  0
  -10.1256    1.5000    0.0000 C   0  0  0  0  0  0  0  0  0  0  0  0
   -8.8265    5.2500    0.0000 C   0  0  0  0  0  0  0  0  0  0  0  0
  -10.1256    6.0000    0.0000 O   0  0  0  0  0  0  0  0  0  0  0  0
  -10.1256    7.5000    0.0000 C   0  0  0  0  0  0  0  0  0  0  0  0
   -7.5275    6.0000    0.0000 C   0  0  0  0  0  0  0  0  0  0  0  0
   -6.2284    5.2500    0.0000 C   0  0  0  0  0  0  0  0  0  0  0  0
   -4.9294    6.0000    0.0000 C   0  0  0  0  0  0  0  0  0  0  0  0
   -3.6304    5.2500    0.0000 C   0  0  0  0  0  0  0  0  0  0  0  0
   -2.3313    6.0000    0.0000 C   0  0  0  0  0  0  0  0  0  0  0  0
   -1.0323    5.2500    0.0000 O   0  0  0  0  0  0  0  0  0  0  0  0
   -1.0323    3.7500    0.0000 C   0  0  0  0  0  0  0  0  0  0  0  0
   -2.3313    7.5000    0.0000 C   0  0  0  0  0  0  0  0  0  0  0  0
   -3.6304    8.2500    0.0000 C   0  0  0  0  0  0  0  0  0  0  0  0
   -4.9294    7.5000    0.0000 C   0  0  0  0  0  0  0  0  0  0  0  0
   -6.2284    8.2500    0.0000 O   0  0  0  0  0  0  0  0  0  0  0  0
   -6.2284    9.7500    0.0000 C   0  0  0  0  0  0  0  0  0  0  0  0
   -2.3313    1.5000    0.0000 C   0  0  0  0  0  0  0  0  0  0  0  0
   -2.3313    3.0000    0.0000 O   0  0  0  0  0  0  0  0  0  0  0  0
  1  2  1  0
  2  3  1  0
  3  4  2  0
  4  5  1  0
  5  6  2  0
  6  7  1  0
  6  8  1  0
  8  9  1  0
  9 10  1  0
 10 11  2  0
 11 12  1  0
 12 13  2  0
 13 14  1  0
 14 15  2  0
 15 16  1  0
 16 17  2  0
 17 18  1  0
 18 19  2  0
 19 20  1  0
 20 21  2  0
 21 22  1  0
 22 23  1  0
 23 24  1  0
 24 25  1  0
 25 26  1  0
 26 27  2  3
 27 28  1  0
 28 29  2  0
 29 30  1  0
 30 31  2  0
 31 32  1  0
 31 33  1  0
 33 34  1  0
 34 35  1  0
 33 36  2  0
 26 37  1  0
 37 38  2  0
 38 39  1  0
 39 40  2  0
 40 41  1  0
 40 42  1  0
 42 43  2  0
 23 44  1  0
 44 45  2  0
 45 46  2  0
 13 47  1  0
 47 48  2  0
 48 49  1  0
 49 50  1  0
 50 51  1  0
 50 52  1  0
 50 53  1  0
  8 54  1  0
 54 55  2  0
 54 56  1  0
 56 57  1  0
 57 58  1  0
 58 59  2  0
 58 60  1  0
 60 61  2  0
 61 62  1  0
 62 63  1  0
 63 64  1  0
 62 65  2  0
 65 66  1  0
 66 67  1  0
 65 68  1  0
 68 69  2  0
 69 70  1  0
 70 71  2  0
 71 72  1  0
 72 73  1  0
 73 74  1  0
 72 75  2  0
 75 76  1  0
 76 77  2  0
 77 78  1  0
 78 79  1  0
 56 80  1  0
 80 81  2  0
  7  3  1  0
 48 10  1  0
 69 60  1  0
 77 70  1  0
 80  5  1  0
 19 14  1  0
 46 20  1  0
 36 28  1  0
 43 37  1  0
M  END
$$$$
