
     RDKit          2D

 43 48  0  0  0  0  0  0  0  0999 V2000
    3.6929   -2.5981    0.0000 O   0  0  0  0  0  0  0  0  0  0  0  0
    4.4429   -1.2990    0.0000 C   0  0  0  0  0  0  0  0  0  0  0  0
    5.9429   -1.2990    0.0000 O   0  0  0  0  0  0  0  0  0  0  0  0
    3.6929    0.0000    0.0000 C   0  0  0  0  0  0  0  0  0  0  0  0
    2.1929    0.0000    0.0000 C   0  0  0  0  0  0  0  0  0  0  0  0
    1.6798    1.4095    0.0000 C   0  0  0  0  0  0  0  0  0  0  0  0
    0.3808    2.1595    0.0000 C   0  0  0  0  0  0  0  0  0  0  0  0
   -1.0964    1.8991    0.0000 C   0  0  0  0  0  0  0  0  0  0  0  0
   -2.0606    0.7500    0.0000 C   0  0  0  0  0  0  0  0  0  0  0  0
   -2.0606   -0.7500    0.0000 C   0  0  0  0  0  0  0  0  0  0  0  0
   -1.0964   -1.8991    0.0000 C   0  0  0  0  0  0  0  0  0  0  0  0
    0.3808   -2.1595    0.0000 C   0  0  0  0  0  0  0  0  0  0  0  0
    1.6798   -1.4095    0.0000 C   0  0  0  0  0  0  0  0  0  0  0  0
    2.8289   -2.3737    0.0000 C   0  0  0  0  0  0  0  0  0  0  0  0
    2.5684   -3.8509    0.0000 C   0  0  0  0  0  0  0  0  0  0  0  0
    1.3656   -4.4639    0.0000 O   0  0  0  0  0  0  0  0  0  0  0  0
    3.7175   -4.8151    0.0000 O   0  0  0  0  0  0  0  0  0  0  0  0
   -0.4863   -3.2694    0.0000 C   0  0  0  0  0  0  0  0  0  0  0  0
    0.7901   -3.7089    0.0000 O   0  0  0  0  0  0  0  0  0  0  0  0
   -1.6010   -4.2731    0.0000 N   0  0  0  0  0  0  0  0  0  0  0  0
   -2.9001   -3.5231    0.0000 N   0  0  0  0  0  0  0  0  0  0  0  0
   -2.5882   -2.0559    0.0000 C   0  0  0  0  0  0  0  0  0  0  0  0
   -3.7029   -3.0596    0.0000 N   0  0  0  0  0  0  0  0  0  0  0  0
   -3.0928   -4.4299    0.0000 C   0  0  0  0  0  0  0  0  0  0  0  0
   -3.8428   -5.7289    0.0000 O   0  0  0  0  0  0  0  0  0  0  0  0
   -5.3428   -5.7289    0.0000 C   0  0  0  0  0  0  0  0  0  0  0  0
   -6.0928   -4.4299    0.0000 C   0  0  0  0  0  0  0  0  0  0  0  0
   -7.5928   -4.4299    0.0000 C   0  0  0  0  0  0  0  0  0  0  0  0
   -8.3428   -3.1308    0.0000 C   0  0  0  0  0  0  0  0  0  0  0  0
   -7.5928   -1.8318    0.0000 C   0  0  0  0  0  0  0  0  0  0  0  0
   -8.3428   -0.5328    0.0000 C   0  0  0  0  0  0  0  0  0  0  0  0
   -9.8428   -0.5328    0.0000 C   0  0  0  0  0  0  0  0  0  0  0  0
  -10.5928   -1.8318    0.0000 C   0  0  0  0  0  0  0  0  0  0  0  0
   -9.8428   -3.1308    0.0000 C   0  0  0  0  0  0  0  0  0  0  0  0
  -10.5928   -4.4299    0.0000 C   0  0  0  0  0  0  0  0  0  0  0  0
   -9.9827   -5.8002    0.0000 N   0  0  0  0  0  0  0  0  0  0  0  0
  -11.0974   -6.8039    0.0000 C   0  0  0  0  0  0  0  0  0  0  0  0
  -10.9406   -8.2957    0.0000 O   0  0  0  0  0  0  0  0  0  0  0  0
  -12.3965   -6.0539    0.0000 O   0  0  0  0  0  0  0  0  0  0  0  0
  -12.0846   -4.5867    0.0000 N   0  0  0  0  0  0  0  0  0  0  0  0
   -8.3428   -5.7289    0.0000 C   0  0  0  0  0  0  0  0  0  0  0  0
   -7.5928   -7.0279    0.0000 C   0  0  0  0  0  0  0  0  0  0  0  0
   -6.0928   -7.0279    0.0000 C   0  0  0  0  0  0  0  0  0  0  0  0
  1  2  2  0
  2  3  1  0
  2  4  1  0
  4  5  2  3
  5  6  1  0
  6  7  1  0
  7  8  1  0
  8  9  1  0
  9 10  1  0
 10 11  1  0
 11 12  1  0
 12 13  1  0
 13 14  2  3
 14 15  1  0
 15 16  2  0
 15 17  1  0
 11 18  1  0
 18 19  2  0
 18 20  1  0
 20 21  1  0
 21 22  2  0
 22 23  1  0
 23 24  2  0
 24 25  1  0
 25 26  1  0
 26 27  2  0
 27 28  1  0
 28 29  1  0
 29 30  2  0
 30 31  1  0
 31 32  2  0
 32 33  1  0
 33 34  2  0
 34 35  1  0
 35 36  2  0
 36 37  1  0
 37 38  2  0
 37 39  1  0
 39 40  1  0
 28 41  2  0
 41 42  1  0
 42 43  2  0
 13  5  1  0
 24 20  1  0
 43 26  1  0
 22 11  1  0
 34 29  1  0
 40 35  1  0
M  END
$$$$
