
     RDKit          2D

 38 40  0  0  0  0  0  0  0  0999 V2000
    7.1667    4.2336    0.0000 C   0  0  0  0  0  0  0  0  0  0  0  0
    5.6679    4.1732    0.0000 C   0  0  0  0  0  0  0  0  0  0  0  0
    4.8662    5.4410    0.0000 O   0  0  0  0  0  0  0  0  0  0  0  0
    4.9708    2.8450    0.0000 N   0  0  0  0  0  0  0  0  0  0  0  0
    3.4720    2.7846    0.0000 C   0  0  0  0  0  0  0  0  0  0  0  0
    2.6703    4.0524    0.0000 O   0  0  0  0  0  0  0  0  0  0  0  0
    2.7750    1.4564    0.0000 C   0  0  0  0  0  0  0  0  0  0  0  0
    4.2640    1.2756    0.0000 N   0  0  0  0  0  0  0  0  0  0  0  0
    4.8520   -0.1044    0.0000 C   0  0  0  0  0  0  0  0  0  0  0  0
    6.3410   -0.2852    0.0000 C   0  0  0  0  0  0  0  0  0  0  0  0
    7.2422    0.9140    0.0000 C   0  0  0  0  0  0  0  0  0  0  0  0
    8.7312    0.7332    0.0000 C   0  0  0  0  0  0  0  0  0  0  0  0
    9.3192   -0.6468    0.0000 C   0  0  0  0  0  0  0  0  0  0  0  0
   10.8082   -0.8276    0.0000 C   0  0  0  0  0  0  0  0  0  0  0  0
   11.5372   -2.1385    0.0000 C   0  0  0  0  0  0  0  0  0  0  0  0
   13.0093   -1.8503    0.0000 N   0  0  0  0  0  0  0  0  0  0  0  0
   13.1901   -0.3613    0.0000 C   0  0  0  0  0  0  0  0  0  0  0  0
   11.8298    0.2708    0.0000 N   0  0  0  0  0  0  0  0  0  0  0  0
    8.4181   -1.8459    0.0000 C   0  0  0  0  0  0  0  0  0  0  0  0
    6.9290   -1.6651    0.0000 C   0  0  0  0  0  0  0  0  0  0  0  0
    3.1339    0.0000    0.0000 C   0  0  0  0  0  0  0  0  0  0  0  0
    2.7750   -1.4564    0.0000 C   0  0  0  0  0  0  0  0  0  0  0  0
    1.7803   -2.5792    0.0000 C   0  0  0  0  0  0  0  0  0  0  0  0
    0.3778   -3.1111    0.0000 C   0  0  0  0  0  0  0  0  0  0  0  0
   -1.1113   -2.9303    0.0000 C   0  0  0  0  0  0  0  0  0  0  0  0
   -2.3458   -2.0782    0.0000 C   0  0  0  0  0  0  0  0  0  0  0  0
   -3.0429   -0.7500    0.0000 C   0  0  0  0  0  0  0  0  0  0  0  0
   -4.4993   -1.1090    0.0000 O   0  0  0  0  0  0  0  0  0  0  0  0
   -3.0429    0.7500    0.0000 N   0  0  0  0  0  0  0  0  0  0  0  0
   -2.3458    2.0782    0.0000 C   0  0  0  0  0  0  0  0  0  0  0  0
   -3.4686    3.0729    0.0000 C   0  0  0  0  0  0  0  0  0  0  0  0
   -1.1113    2.9303    0.0000 N   0  0  0  0  0  0  0  0  0  0  0  0
   -1.6432    4.3328    0.0000 C   0  0  0  0  0  0  0  0  0  0  0  0
   -0.6945    5.4947    0.0000 C   0  0  0  0  0  0  0  0  0  0  0  0
   -3.1238    4.5734    0.0000 C   0  0  0  0  0  0  0  0  0  0  0  0
    0.3778    3.1111    0.0000 C   0  0  0  0  0  0  0  0  0  0  0  0
    0.5586    4.6001    0.0000 O   0  0  0  0  0  0  0  0  0  0  0  0
    1.7803    2.5792    0.0000 C   0  0  0  0  0  0  0  0  0  0  0  0
  1  2  1  0
  2  3  1  0
  2  4  2  3
  4  5  1  0
  5  6  2  0
  5  7  1  0
  7  8  1  0
  8  9  1  0
  9 10  1  0
 10 11  2  0
 11 12  1  0
 12 13  2  0
 13 14  1  0
 14 15  2  0
 15 16  1  0
 16 17  2  0
 17 18  1  0
 13 19  1  0
 19 20  2  0
  7 21  1  0
 21 22  1  0
 22 23  1  0
 23 24  1  0
 24 25  1  0
 25 26  1  0
 26 27  1  0
 27 28  2  0
 27 29  1  0
 29 30  2  3
 30 31  1  0
 30 32  1  0
 32 33  1  0
 33 34  1  0
 33 35  1  0
 32 36  1  0
 36 37  2  0
 36 38  1  0
 38  7  1  0
 20 10  1  0
 18 14  1  0
M  END
$$$$
