
     RDKit          2D

 79 86  0  0  0  0  0  0  0  0999 V2000
   17.6109   -8.4683    0.0000 C   0  0  0  0  0  0  0  0  0  0  0  0
   17.3676   -6.9882    0.0000 O   0  0  0  0  0  0  0  0  0  0  0  0
   15.9642   -6.4588    0.0000 C   0  0  0  0  0  0  0  0  0  0  0  0
   14.8040   -7.4095    0.0000 C   0  0  0  0  0  0  0  0  0  0  0  0
   13.4005   -6.8801    0.0000 C   0  0  0  0  0  0  0  0  0  0  0  0
   13.1572   -5.4000    0.0000 C   0  0  0  0  0  0  0  0  0  0  0  0
   11.7537   -4.8706    0.0000 C   0  0  0  0  0  0  0  0  0  0  0  0
   11.5105   -3.3905    0.0000 C   0  0  0  0  0  0  0  0  0  0  0  0
   10.1070   -2.8611    0.0000 C   0  0  0  0  0  0  0  0  0  0  0  0
    8.9468   -3.8118    0.0000 C   0  0  0  0  0  0  0  0  0  0  0  0
    7.5433   -3.2824    0.0000 C   0  0  0  0  0  0  0  0  0  0  0  0
    7.3000   -1.8023    0.0000 N   0  0  0  0  0  0  0  0  0  0  0  0
    5.8966   -1.2729    0.0000 C   0  0  0  0  0  0  0  0  0  0  0  0
    4.6433   -2.0971    0.0000 N   0  0  0  0  0  0  0  0  0  0  0  0
    3.4722   -1.1599    0.0000 C   0  0  0  0  0  0  0  0  0  0  0  0
    2.0255   -1.5566    0.0000 C   0  0  0  0  0  0  0  0  0  0  0  0
    1.6458   -3.0077    0.0000 C   0  0  0  0  0  0  0  0  0  0  0  0
    2.7126   -4.0622    0.0000 O   0  0  0  0  0  0  0  0  0  0  0  0
    0.1991   -3.4044    0.0000 C   0  0  0  0  0  0  0  0  0  0  0  0
   -0.8677   -2.3499    0.0000 C   0  0  0  0  0  0  0  0  0  0  0  0
   -2.3143   -2.7466    0.0000 O   0  0  0  0  0  0  0  0  0  0  0  0
   -0.4879   -0.8988    0.0000 C   0  0  0  0  0  0  0  0  0  0  0  0
    0.9587   -0.5021    0.0000 C   0  0  0  0  0  0  0  0  0  0  0  0
    4.0015    0.2435    0.0000 C   0  0  0  0  0  0  0  0  0  0  0  0
    3.1773    1.4968    0.0000 C   0  0  0  0  0  0  0  0  0  0  0  0
    4.1548    2.6345    0.0000 O   0  0  0  0  0  0  0  0  0  0  0  0
    1.6798    1.4095    0.0000 C   0  0  0  0  0  0  0  0  0  0  0  0
    2.0257    2.8691    0.0000 C   0  0  0  0  0  0  0  0  0  0  0  0
    1.0483    4.0069    0.0000 N   0  0  0  0  0  0  0  0  0  0  0  0
    1.8283    5.2881    0.0000 N   0  0  0  0  0  0  0  0  0  0  0  0
    3.2879    4.9422    0.0000 C   0  0  0  0  0  0  0  0  0  0  0  0
    3.4099    3.4472    0.0000 N   0  0  0  0  0  0  0  0  0  0  0  0
    2.1929    0.0000    0.0000 C   0  0  0  0  0  0  0  0  0  0  0  0
    1.6798   -1.4095    0.0000 C   0  0  0  0  0  0  0  0  0  0  0  0
    0.3808   -2.1595    0.0000 C   0  0  0  0  0  0  0  0  0  0  0  0
    0.2761   -3.6559    0.0000 O   0  0  0  0  0  0  0  0  0  0  0  0
   -1.0964   -1.8991    0.0000 C   0  0  0  0  0  0  0  0  0  0  0  0
   -2.0606   -0.7500    0.0000 C   0  0  0  0  0  0  0  0  0  0  0  0
   -2.0606    0.7500    0.0000 C   0  0  0  0  0  0  0  0  0  0  0  0
   -3.4701    1.2630    0.0000 O   0  0  0  0  0  0  0  0  0  0  0  0
   -1.0964    1.8991    0.0000 C   0  0  0  0  0  0  0  0  0  0  0  0
    0.3808    2.1595    0.0000 C   0  0  0  0  0  0  0  0  0  0  0  0
    5.4999    0.1737    0.0000 N   0  0  0  0  0  0  0  0  0  0  0  0
    6.4371    1.3449    0.0000 C   0  0  0  0  0  0  0  0  0  0  0  0
    7.9200    1.1189    0.0000 C   0  0  0  0  0  0  0  0  0  0  0  0
    8.8572    2.2901    0.0000 C   0  0  0  0  0  0  0  0  0  0  0  0
    8.3115    3.6873    0.0000 C   0  0  0  0  0  0  0  0  0  0  0  0
    9.2487    4.8585    0.0000 O   0  0  0  0  0  0  0  0  0  0  0  0
   10.7315    4.6325    0.0000 C   0  0  0  0  0  0  0  0  0  0  0  0
   11.2772    3.2353    0.0000 O   0  0  0  0  0  0  0  0  0  0  0  0
   11.6687    5.8037    0.0000 O   0  0  0  0  0  0  0  0  0  0  0  0
    6.8286    3.9133    0.0000 C   0  0  0  0  0  0  0  0  0  0  0  0
    6.2829    5.3106    0.0000 O   0  0  0  0  0  0  0  0  0  0  0  0
    7.2201    6.4817    0.0000 O   0  0  0  0  0  0  0  0  0  0  0  0
    6.6744    7.8790    0.0000 O   0  0  0  0  0  0  0  0  0  0  0  0
    7.6116    9.0502    0.0000 C   0  0  0  0  0  0  0  0  0  0  0  0
    7.0659   10.4474    0.0000 C   0  0  0  0  0  0  0  0  0  0  0  0
    5.5830   10.6734    0.0000 N   0  0  0  0  0  0  0  0  0  0  0  0
    5.0373   12.0706    0.0000 C   0  0  0  0  0  0  0  0  0  0  0  0
    5.9745   13.2418    0.0000 C   0  0  0  0  0  0  0  0  0  0  0  0
    5.4288   14.6390    0.0000 C   0  0  0  0  0  0  0  0  0  0  0  0
    3.9460   14.8651    0.0000 C   0  0  0  0  0  0  0  0  0  0  0  0
    3.0088   13.6939    0.0000 C   0  0  0  0  0  0  0  0  0  0  0  0
    3.5545   12.2967    0.0000 C   0  0  0  0  0  0  0  0  0  0  0  0
    8.0031   11.6186    0.0000 C   0  0  0  0  0  0  0  0  0  0  0  0
    9.4860   11.3925    0.0000 O   0  0  0  0  0  0  0  0  0  0  0  0
    7.4574   13.0158    0.0000 O   0  0  0  0  0  0  0  0  0  0  0  0
    5.8914    2.7421    0.0000 C   0  0  0  0  0  0  0  0  0  0  0  0
    9.1901   -5.2919    0.0000 C   0  0  0  0  0  0  0  0  0  0  0  0
    8.0299   -6.2427    0.0000 O   0  0  0  0  0  0  0  0  0  0  0  0
    8.2731   -7.7228    0.0000 N   0  0  0  0  0  0  0  0  0  0  0  0
    7.1129   -8.6736    0.0000 N   0  0  0  0  0  0  0  0  0  0  0  0
    7.3562  -10.1537    0.0000 O   0  0  0  0  0  0  0  0  0  0  0  0
    6.1960  -11.1045    0.0000 N   0  0  0  0  0  0  0  0  0  0  0  0
    6.4392  -12.5846    0.0000 O   0  0  0  0  0  0  0  0  0  0  0  0
   10.5935   -5.8213    0.0000 C   0  0  0  0  0  0  0  0  0  0  0  0
   14.3174   -4.4492    0.0000 C   0  0  0  0  0  0  0  0  0  0  0  0
   14.0742   -2.9691    0.0000 O   0  0  0  0  0  0  0  0  0  0  0  0
   15.7209   -4.9786    0.0000 C   0  0  0  0  0  0  0  0  0  0  0  0
  1  2  1  0
  2  3  1  0
  3  4  2  0
  4  5  1  0
  5  6  2  0
  6  7  1  0
  7  8  2  0
  8  9  1  0
  9 10  2  0
 10 11  1  0
 11 12  1  0
 12 13  1  0
 13 14  2  0
 14 15  1  0
 15 16  1  0
 16 17  2  0
 17 18  1  0
 17 19  1  0
 19 20  2  0
 20 21  1  0
 20 22  1  0
 22 23  2  0
 15 24  2  0
 24 25  1  0
 25 26  2  0
 25 27  1  0
 27 28  1  0
 28 29  2  0
 29 30  1  0
 30 31  2  0
 31 32  2  0
 27 33  1  0
 33 34  1  0
 34 35  1  0
 35 36  2  0
 35 37  1  0
 37 38  1  0
 38 39  1  0
 39 40  2  0
 39 41  1  0
 41 42  1  0
 24 43  1  0
 43 44  1  0
 44 45  2  0
 45 46  1  0
 46 47  2  0
 47 48  1  0
 48 49  1  0
 49 50  2  0
 49 51  1  0
 47 52  1  0
 52 53  1  0
 53 54  1  0
 54 55  1  0
 55 56  1  0
 56 57  1  0
 57 58  1  0
 58 59  1  0
 59 60  2  0
 60 61  1  0
 61 62  2  0
 62 63  1  0
 63 64  2  0
 57 65  1  0
 65 66  2  0
 65 67  1  0
 52 68  2  0
 10 69  1  0
 69 70  1  0
 70 71  1  0
 71 72  2  3
 72 73  1  0
 73 74  1  0
 74 75  2  0
 69 76  2  0
  6 77  1  0
 77 78  1  0
 77 79  2  0
 79  3  1  0
 76  7  1  0
 43 13  1  0
 68 44  1  0
 23 16  1  0
 42 27  1  0
 64 59  1  0
 32 28  1  0
M  END
$$$$
