
     RDKit          2D

 89 94  0  0  0  0  0  0  0  0999 V2000
   -1.2990   -5.8573    0.0000 C   0  0  0  0  0  0  0  0  0  0  0  0
   -0.0000   -5.1073    0.0000 C   0  0  0  0  0  0  0  0  0  0  0  0
   -0.0000   -3.6073    0.0000 C   0  0  0  0  0  0  0  0  0  0  0  0
    1.2135   -2.7256    0.0000 N   0  0  0  0  0  0  0  0  0  0  0  0
    0.7500   -1.2990    0.0000 C   0  0  0  0  0  0  0  0  0  0  0  0
    1.5000    0.0000    0.0000 C   0  0  0  0  0  0  0  0  0  0  0  0
    3.0000    0.0000    0.0000 C   0  0  0  0  0  0  0  0  0  0  0  0
    0.7500    1.2990    0.0000 C   0  0  0  0  0  0  0  0  0  0  0  0
   -0.7500    1.2990    0.0000 C   0  0  0  0  0  0  0  0  0  0  0  0
   -1.5000    2.5981    0.0000 C   0  0  0  0  0  0  0  0  0  0  0  0
   -1.5000    0.0000    0.0000 N   0  0  0  0  0  0  0  0  0  0  0  0
   -0.7500   -1.2990    0.0000 C   0  0  0  0  0  0  0  0  0  0  0  0
   -1.2135   -2.7256    0.0000 N   0  0  0  0  0  0  0  0  0  0  0  0
   -2.6401   -3.1891    0.0000 C   0  0  0  0  0  0  0  0  0  0  0  0
   -3.7548   -2.1855    0.0000 C   0  0  0  0  0  0  0  0  0  0  0  0
   -3.4430   -0.7182    0.0000 C   0  0  0  0  0  0  0  0  0  0  0  0
   -4.5577    0.2855    0.0000 C   0  0  0  0  0  0  0  0  0  0  0  0
   -5.9843   -0.1781    0.0000 C   0  0  0  0  0  0  0  0  0  0  0  0
   -7.0990    0.8256    0.0000 N   0  0  0  0  0  0  0  0  0  0  0  0
   -6.7871    2.2929    0.0000 C   0  0  0  0  0  0  0  0  0  0  0  0
   -7.9018    3.2966    0.0000 C   0  0  0  0  0  0  0  0  0  0  0  0
   -9.3284    2.8330    0.0000 N   0  0  0  0  0  0  0  0  0  0  0  0
  -10.4431    3.8367    0.0000 O   0  0  0  0  0  0  0  0  0  0  0  0
  -11.8697    3.3732    0.0000 O   0  0  0  0  0  0  0  0  0  0  0  0
  -12.9844    4.3769    0.0000 O   0  0  0  0  0  0  0  0  0  0  0  0
  -14.4110    3.9134    0.0000 O   0  0  0  0  0  0  0  0  0  0  0  0
  -15.5257    4.9171    0.0000 O   0  0  0  0  0  0  0  0  0  0  0  0
  -16.9523    4.4535    0.0000 O   0  0  0  0  0  0  0  0  0  0  0  0
  -18.0670    5.4572    0.0000 O   0  0  0  0  0  0  0  0  0  0  0  0
  -19.4936    4.9937    0.0000 O   0  0  0  0  0  0  0  0  0  0  0  0
  -20.6083    5.9974    0.0000 O   0  0  0  0  0  0  0  0  0  0  0  0
  -22.0349    5.5339    0.0000 O   0  0  0  0  0  0  0  0  0  0  0  0
  -23.1496    6.5376    0.0000 O   0  0  0  0  0  0  0  0  0  0  0  0
  -24.5762    6.0740    0.0000 O   0  0  0  0  0  0  0  0  0  0  0  0
  -25.6909    7.0777    0.0000 O   0  0  0  0  0  0  0  0  0  0  0  0
  -27.1175    6.6142    0.0000 O   0  0  0  0  0  0  0  0  0  0  0  0
  -28.2322    7.6179    0.0000 O   0  0  0  0  0  0  0  0  0  0  0  0
  -29.6588    7.1544    0.0000 O   0  0  0  0  0  0  0  0  0  0  0  0
  -30.7735    8.1581    0.0000 O   0  0  0  0  0  0  0  0  0  0  0  0
  -32.2001    7.6946    0.0000 O   0  0  0  0  0  0  0  0  0  0  0  0
  -33.3148    8.6983    0.0000 O   0  0  0  0  0  0  0  0  0  0  0  0
  -34.7414    8.2347    0.0000 O   0  0  0  0  0  0  0  0  0  0  0  0
  -35.8562    9.2384    0.0000 O   0  0  0  0  0  0  0  0  0  0  0  0
  -37.2827    8.7749    0.0000 O   0  0  0  0  0  0  0  0  0  0  0  0
  -38.3975    9.7786    0.0000 O   0  0  0  0  0  0  0  0  0  0  0  0
  -39.8240    9.3151    0.0000 O   0  0  0  0  0  0  0  0  0  0  0  0
  -40.9388   10.3188    0.0000 O   0  0  0  0  0  0  0  0  0  0  0  0
  -42.3653    9.8552    0.0000 C   0  0  0  0  0  0  0  0  0  0  0  0
  -43.4801   10.8589    0.0000 C   0  0  0  0  0  0  0  0  0  0  0  0
  -44.9066   10.3954    0.0000 C   0  0  0  0  0  0  0  0  0  0  0  0
  -45.2185    8.9282    0.0000 C   0  0  0  0  0  0  0  0  0  0  0  0
  -44.1038    7.9245    0.0000 C   0  0  0  0  0  0  0  0  0  0  0  0
  -42.6772    8.3880    0.0000 C   0  0  0  0  0  0  0  0  0  0  0  0
   -7.5900    4.7638    0.0000 C   0  0  0  0  0  0  0  0  0  0  0  0
   -6.1634    5.2273    0.0000 C   0  0  0  0  0  0  0  0  0  0  0  0
   -5.8515    6.6945    0.0000 C   0  0  0  0  0  0  0  0  0  0  0  0
   -6.9662    7.6982    0.0000 C   0  0  0  0  0  0  0  0  0  0  0  0
   -6.6544    9.1654    0.0000 O   0  0  0  0  0  0  0  0  0  0  0  0
   -5.2278    9.6290    0.0000 C   0  0  0  0  0  0  0  0  0  0  0  0
   -8.3928    7.2347    0.0000 C   0  0  0  0  0  0  0  0  0  0  0  0
   -8.7047    5.7675    0.0000 C   0  0  0  0  0  0  0  0  0  0  0  0
   -8.5256    0.3621    0.0000 C   0  0  0  0  0  0  0  0  0  0  0  0
   -9.6403    1.3658    0.0000 O   0  0  0  0  0  0  0  0  0  0  0  0
   -8.8374   -1.1051    0.0000 C   0  0  0  0  0  0  0  0  0  0  0  0
  -10.2640   -1.5686    0.0000 C   0  0  0  0  0  0  0  0  0  0  0  0
  -11.3787   -0.5649    0.0000 C   0  0  0  0  0  0  0  0  0  0  0  0
  -11.0669    0.9023    0.0000 C   0  0  0  0  0  0  0  0  0  0  0  0
  -12.1816    1.9060    0.0000 C   0  0  0  0  0  0  0  0  0  0  0  0
  -13.6082    1.4425    0.0000 C   0  0  0  0  0  0  0  0  0  0  0  0
  -14.7229    2.4461    0.0000 O   0  0  0  0  0  0  0  0  0  0  0  0
  -16.1495    1.9826    0.0000 C   0  0  0  0  0  0  0  0  0  0  0  0
  -13.9200   -0.0248    0.0000 C   0  0  0  0  0  0  0  0  0  0  0  0
  -12.8053   -1.0285    0.0000 C   0  0  0  0  0  0  0  0  0  0  0  0
   -7.7227   -2.1088    0.0000 O   0  0  0  0  0  0  0  0  0  0  0  0
   -8.0346   -3.5760    0.0000 C   0  0  0  0  0  0  0  0  0  0  0  0
   -6.9199   -4.5797    0.0000 O   0  0  0  0  0  0  0  0  0  0  0  0
   -7.2317   -6.0469    0.0000 O   0  0  0  0  0  0  0  0  0  0  0  0
   -6.1170   -7.0506    0.0000 O   0  0  0  0  0  0  0  0  0  0  0  0
   -6.4289   -8.5179    0.0000 O   0  0  0  0  0  0  0  0  0  0  0  0
   -5.3142   -9.5216    0.0000 O   0  0  0  0  0  0  0  0  0  0  0  0
   -5.6260  -10.9888    0.0000 O   0  0  0  0  0  0  0  0  0  0  0  0
   -4.5113  -11.9925    0.0000 O   0  0  0  0  0  0  0  0  0  0  0  0
   -4.8232  -13.4597    0.0000 O   0  0  0  0  0  0  0  0  0  0  0  0
   -3.7085  -14.4634    0.0000 O   0  0  0  0  0  0  0  0  0  0  0  0
   -4.0203  -15.9306    0.0000 O   0  0  0  0  0  0  0  0  0  0  0  0
   -2.9056  -16.9343    0.0000 O   0  0  0  0  0  0  0  0  0  0  0  0
   -3.2175  -18.4015    0.0000 O   0  0  0  0  0  0  0  0  0  0  0  0
   -6.2961   -1.6453    0.0000 C   0  0  0  0  0  0  0  0  0  0  0  0
   -5.1814   -2.6490    0.0000 C   0  0  0  0  0  0  0  0  0  0  0  0
  1  2  1  0
  2  3  1  0
  3  4  2  0
  4  5  1  0
  5  6  2  0
  6  7  1  0
  6  8  1  0
  8  9  2  0
  9 10  1  0
  9 11  1  0
 11 12  2  0
 12 13  1  0
 13 14  1  0
 14 15  1  0
 15 16  2  0
 16 17  1  0
 17 18  2  0
 18 19  1  0
 19 20  1  0
 20 21  1  0
 21 22  2  3
 22 23  1  0
 23 24  1  0
 24 25  1  0
 25 26  1  0
 26 27  1  0
 27 28  1  0
 28 29  1  0
 29 30  1  0
 30 31  1  0
 31 32  1  0
 32 33  1  0
 33 34  1  0
 34 35  1  0
 35 36  1  0
 36 37  1  0
 37 38  1  0
 38 39  1  0
 39 40  1  0
 40 41  1  0
 41 42  1  0
 42 43  1  0
 43 44  1  0
 44 45  1  0
 45 46  1  0
 46 47  1  0
 47 48  1  0
 48 49  2  0
 49 50  1  0
 50 51  2  0
 51 52  1  0
 52 53  2  0
 21 54  1  0
 54 55  2  0
 55 56  1  0
 56 57  2  0
 57 58  1  0
 58 59  1  0
 57 60  1  0
 60 61  2  0
 19 62  1  0
 62 63  2  0
 62 64  1  0
 64 65  2  3
 65 66  1  0
 66 67  2  0
 67 68  1  0
 68 69  2  0
 69 70  1  0
 70 71  1  0
 69 72  1  0
 72 73  2  0
 64 74  1  0
 74 75  1  0
 75 76  1  0
 76 77  1  0
 77 78  1  0
 78 79  1  0
 79 80  1  0
 80 81  1  0
 81 82  1  0
 82 83  1  0
 83 84  1  0
 84 85  1  0
 85 86  1  0
 86 87  1  0
 18 88  1  0
 88 89  2  0
 13  3  1  0
 89 15  1  0
 12  5  1  0
 53 48  1  0
 61 54  1  0
 73 66  1  0
M  END
$$$$
