
     RDKit          2D

 56 61  0  0  0  0  0  0  0  0999 V2000
   -1.8681  -26.6065    0.0000 C   0  0  0  0  0  0  0  0  0  0  0  0
   -0.6546  -25.7248    0.0000 C   0  0  0  0  0  0  0  0  0  0  0  0
   -0.8113  -24.2330    0.0000 C   0  0  0  0  0  0  0  0  0  0  0  0
    0.4022  -23.3514    0.0000 C   0  0  0  0  0  0  0  0  0  0  0  0
    0.2454  -21.8596    0.0000 C   0  0  0  0  0  0  0  0  0  0  0  0
    1.3601  -20.8559    0.0000 N   0  0  0  0  0  0  0  0  0  0  0  0
    0.7500  -19.4856    0.0000 N   0  0  0  0  0  0  0  0  0  0  0  0
    1.5000  -18.1865    0.0000 C   0  0  0  0  0  0  0  0  0  0  0  0
    0.7500  -16.8875    0.0000 C   0  0  0  0  0  0  0  0  0  0  0  0
    1.5000  -15.5885    0.0000 C   0  0  0  0  0  0  0  0  0  0  0  0
    0.7500  -14.2894    0.0000 C   0  0  0  0  0  0  0  0  0  0  0  0
    1.5000  -12.9904    0.0000 C   0  0  0  0  0  0  0  0  0  0  0  0
    0.7500  -11.6913    0.0000 C   0  0  0  0  0  0  0  0  0  0  0  0
    1.5000  -10.3923    0.0000 C   0  0  0  0  0  0  0  0  0  0  0  0
    0.7500   -9.0933    0.0000 C   0  0  0  0  0  0  0  0  0  0  0  0
    1.5000   -7.7942    0.0000 C   0  0  0  0  0  0  0  0  0  0  0  0
    0.7500   -6.4952    0.0000 C   0  0  0  0  0  0  0  0  0  0  0  0
    1.5000   -5.1962    0.0000 C   0  0  0  0  0  0  0  0  0  0  0  0
    3.0000   -5.1962    0.0000 O   0  0  0  0  0  0  0  0  0  0  0  0
    0.7500   -3.8971    0.0000 O   0  0  0  0  0  0  0  0  0  0  0  0
    1.5000   -2.5981    0.0000 C   0  0  0  0  0  0  0  0  0  0  0  0
    3.0000   -2.5981    0.0000 O   0  0  0  0  0  0  0  0  0  0  0  0
    0.7500   -1.2990    0.0000 C   0  0  0  0  0  0  0  0  0  0  0  0
    1.5000    0.0000    0.0000 C   0  0  0  0  0  0  0  0  0  0  0  0
    0.7500    1.2990    0.0000 C   0  0  0  0  0  0  0  0  0  0  0  0
    1.5000    2.5981    0.0000 O   0  0  0  0  0  0  0  0  0  0  0  0
   -0.7500    1.2990    0.0000 C   0  0  0  0  0  0  0  0  0  0  0  0
   -1.5000    0.0000    0.0000 C   0  0  0  0  0  0  0  0  0  0  0  0
   -0.7500   -1.2990    0.0000 C   0  0  0  0  0  0  0  0  0  0  0  0
   -1.5000   -2.5981    0.0000 O   0  0  0  0  0  0  0  0  0  0  0  0
   -3.0000   -2.5981    0.0000 C   0  0  0  0  0  0  0  0  0  0  0  0
   -3.8817   -3.8116    0.0000 N   0  0  0  0  0  0  0  0  0  0  0  0
   -5.3083   -3.3481    0.0000 N   0  0  0  0  0  0  0  0  0  0  0  0
   -5.3083   -1.8481    0.0000 N   0  0  0  0  0  0  0  0  0  0  0  0
   -3.8817   -1.3846    0.0000 N   0  0  0  0  0  0  0  0  0  0  0  0
   -0.7418  -19.6424    0.0000 C   0  0  0  0  0  0  0  0  0  0  0  0
   -1.7455  -18.5276    0.0000 O   0  0  0  0  0  0  0  0  0  0  0  0
   -1.0537  -21.1096    0.0000 N   0  0  0  0  0  0  0  0  0  0  0  0
   -2.4240  -21.7197    0.0000 C   0  0  0  0  0  0  0  0  0  0  0  0
   -3.6375  -20.8380    0.0000 C   0  0  0  0  0  0  0  0  0  0  0  0
   -3.4807  -19.3462    0.0000 C   0  0  0  0  0  0  0  0  0  0  0  0
   -4.6942  -18.4646    0.0000 C   0  0  0  0  0  0  0  0  0  0  0  0
   -6.0645  -19.0747    0.0000 C   0  0  0  0  0  0  0  0  0  0  0  0
   -7.2781  -18.1930    0.0000 C   0  0  0  0  0  0  0  0  0  0  0  0
   -7.1213  -16.7012    0.0000 C   0  0  0  0  0  0  0  0  0  0  0  0
   -8.3348  -15.8195    0.0000 C   0  0  0  0  0  0  0  0  0  0  0  0
   -9.7051  -16.4296    0.0000 C   0  0  0  0  0  0  0  0  0  0  0  0
   -9.8619  -17.9214    0.0000 C   0  0  0  0  0  0  0  0  0  0  0  0
   -8.6484  -18.8031    0.0000 C   0  0  0  0  0  0  0  0  0  0  0  0
   -8.8052  -20.2949    0.0000 C   0  0  0  0  0  0  0  0  0  0  0  0
   -7.6905  -21.2986    0.0000 N   0  0  0  0  0  0  0  0  0  0  0  0
   -8.3006  -22.6689    0.0000 N   0  0  0  0  0  0  0  0  0  0  0  0
   -9.7924  -22.5121    0.0000 N   0  0  0  0  0  0  0  0  0  0  0  0
  -10.1042  -21.0449    0.0000 N   0  0  0  0  0  0  0  0  0  0  0  0
   -6.2213  -20.5664    0.0000 C   0  0  0  0  0  0  0  0  0  0  0  0
   -5.0078  -21.4481    0.0000 C   0  0  0  0  0  0  0  0  0  0  0  0
  1  2  1  0
  2  3  1  0
  3  4  1  0
  4  5  1  0
  5  6  2  0
  6  7  1  0
  7  8  1  0
  8  9  1  0
  9 10  1  0
 10 11  1  0
 11 12  1  0
 12 13  1  0
 13 14  1  0
 14 15  1  0
 15 16  1  0
 16 17  1  0
 17 18  1  0
 18 19  2  0
 18 20  1  0
 20 21  1  0
 21 22  2  0
 21 23  1  0
 23 24  2  0
 24 25  1  0
 25 26  1  0
 25 27  2  0
 27 28  1  0
 28 29  2  0
 29 30  1  0
 30 31  1  0
 31 32  2  0
 32 33  1  0
 33 34  2  0
 34 35  1  0
  7 36  1  0
 36 37  2  0
 36 38  1  0
 38 39  1  0
 39 40  1  0
 40 41  2  0
 41 42  1  0
 42 43  2  0
 43 44  1  0
 44 45  2  0
 45 46  1  0
 46 47  2  0
 47 48  1  0
 48 49  2  0
 49 50  1  0
 50 51  2  0
 51 52  1  0
 52 53  2  0
 53 54  1  0
 43 55  1  0
 55 56  2  0
 38  5  1  0
 56 40  1  0
 29 23  1  0
 35 31  1  0
 49 44  1  0
 54 50  1  0
M  END
$$$$
