
     RDKit          2D

 50 53  0  0  0  0  0  0  0  0999 V2000
   -3.9511  -16.0273    0.0000 C   0  0  0  0  0  0  0  0  0  0  0  0
   -2.5808  -15.4172    0.0000 C   0  0  0  0  0  0  0  0  0  0  0  0
   -2.4240  -13.9255    0.0000 C   0  0  0  0  0  0  0  0  0  0  0  0
   -1.0537  -13.3154    0.0000 C   0  0  0  0  0  0  0  0  0  0  0  0
    0.2454  -14.0654    0.0000 N   0  0  0  0  0  0  0  0  0  0  0  0
    1.3601  -13.0617    0.0000 C   0  0  0  0  0  0  0  0  0  0  0  0
    2.8273  -13.3735    0.0000 C   0  0  0  0  0  0  0  0  0  0  0  0
    3.2909  -14.8001    0.0000 C   0  0  0  0  0  0  0  0  0  0  0  0
    0.7500  -11.6913    0.0000 C   0  0  0  0  0  0  0  0  0  0  0  0
    1.5000  -10.3923    0.0000 C   0  0  0  0  0  0  0  0  0  0  0  0
    3.0000  -10.3923    0.0000 O   0  0  0  0  0  0  0  0  0  0  0  0
    0.7500   -9.0933    0.0000 O   0  0  0  0  0  0  0  0  0  0  0  0
    1.5000   -7.7942    0.0000 C   0  0  0  0  0  0  0  0  0  0  0  0
    0.7500   -6.4952    0.0000 C   0  0  0  0  0  0  0  0  0  0  0  0
    1.5000   -5.1962    0.0000 C   0  0  0  0  0  0  0  0  0  0  0  0
    0.7500   -3.8971    0.0000 C   0  0  0  0  0  0  0  0  0  0  0  0
    1.5000   -2.5981    0.0000 N   0  0  0  0  0  0  0  0  0  0  0  0
    0.7500   -1.2990    0.0000 C   0  0  0  0  0  0  0  0  0  0  0  0
    1.5000   -0.0000    0.0000 C   0  0  0  0  0  0  0  0  0  0  0  0
    0.7500    1.2990    0.0000 C   0  0  0  0  0  0  0  0  0  0  0  0
   -0.7500    1.2990    0.0000 C   0  0  0  0  0  0  0  0  0  0  0  0
   -1.5000    0.0000    0.0000 C   0  0  0  0  0  0  0  0  0  0  0  0
   -0.7500   -1.2990    0.0000 C   0  0  0  0  0  0  0  0  0  0  0  0
   -0.7418  -11.8481    0.0000 N   0  0  0  0  0  0  0  0  0  0  0  0
   -1.7455  -10.7334    0.0000 C   0  0  0  0  0  0  0  0  0  0  0  0
   -3.2127  -11.0453    0.0000 C   0  0  0  0  0  0  0  0  0  0  0  0
   -3.6762  -12.4719    0.0000 C   0  0  0  0  0  0  0  0  0  0  0  0
   -5.1434  -12.7837    0.0000 C   0  0  0  0  0  0  0  0  0  0  0  0
   -6.1471  -11.6690    0.0000 C   0  0  0  0  0  0  0  0  0  0  0  0
   -7.6144  -11.9809    0.0000 C   0  0  0  0  0  0  0  0  0  0  0  0
   -8.0779  -13.4075    0.0000 C   0  0  0  0  0  0  0  0  0  0  0  0
   -9.5451  -13.7193    0.0000 C   0  0  0  0  0  0  0  0  0  0  0  0
  -10.5488  -12.6046    0.0000 C   0  0  0  0  0  0  0  0  0  0  0  0
  -10.0853  -11.1780    0.0000 C   0  0  0  0  0  0  0  0  0  0  0  0
   -8.6181  -10.8662    0.0000 C   0  0  0  0  0  0  0  0  0  0  0  0
   -8.1545   -9.4396    0.0000 S   0  0  0  0  0  0  0  0  0  0  0  0
   -9.5811   -8.9761    0.0000 O   0  0  0  0  0  0  0  0  0  0  0  0
   -6.7280   -9.9031    0.0000 O   0  0  0  0  0  0  0  0  0  0  0  0
   -7.6910   -8.0130    0.0000 N   0  0  0  0  0  0  0  0  0  0  0  0
   -8.6947   -6.8983    0.0000 C   0  0  0  0  0  0  0  0  0  0  0  0
  -10.1619   -7.2102    0.0000 O   0  0  0  0  0  0  0  0  0  0  0  0
   -8.2312   -5.4717    0.0000 O   0  0  0  0  0  0  0  0  0  0  0  0
   -9.2349   -4.3570    0.0000 C   0  0  0  0  0  0  0  0  0  0  0  0
   -8.7714   -2.9304    0.0000 C   0  0  0  0  0  0  0  0  0  0  0  0
   -9.7750   -1.8157    0.0000 C   0  0  0  0  0  0  0  0  0  0  0  0
   -9.3115   -0.3891    0.0000 C   0  0  0  0  0  0  0  0  0  0  0  0
  -11.2423   -2.1275    0.0000 C   0  0  0  0  0  0  0  0  0  0  0  0
   -5.6836  -10.2424    0.0000 C   0  0  0  0  0  0  0  0  0  0  0  0
   -4.2164   -9.9306    0.0000 C   0  0  0  0  0  0  0  0  0  0  0  0
   -3.7529   -8.5040    0.0000 F   0  0  0  0  0  0  0  0  0  0  0  0
  1  2  1  0
  2  3  1  0
  3  4  1  0
  4  5  2  0
  5  6  1  0
  6  7  1  0
  7  8  1  0
  6  9  2  0
  9 10  1  0
 10 11  2  0
 10 12  1  0
 12 13  1  0
 13 14  1  0
 14 15  1  0
 15 16  1  0
 16 17  1  0
 17 18  1  0
 18 19  2  0
 19 20  1  0
 20 21  2  0
 21 22  1  0
 22 23  2  0
  9 24  1  0
 24 25  1  0
 25 26  1  0
 26 27  2  0
 27 28  1  0
 28 29  2  0
 29 30  1  0
 30 31  2  0
 31 32  1  0
 32 33  2  0
 33 34  1  0
 34 35  2  0
 35 36  1  0
 36 37  2  0
 36 38  2  0
 36 39  1  0
 39 40  1  0
 40 41  2  0
 40 42  1  0
 42 43  1  0
 43 44  1  0
 44 45  1  0
 45 46  1  0
 45 47  1  0
 29 48  1  0
 48 49  2  0
 49 50  1  0
 24  4  1  0
 49 26  1  0
 23 18  1  0
 35 30  1  0
M  END
$$$$
