
     RDKit          2D

 52 58  0  0  0  0  0  0  0  0999 V2000
   -5.8815    3.5120    0.0000 C   0  0  0  0  0  0  0  0  0  0  0  0
   -4.4296    3.8887    0.0000 C   0  0  0  0  0  0  0  0  0  0  0  0
   -3.3774    2.8196    0.0000 O   0  0  0  0  0  0  0  0  0  0  0  0
   -1.9254    3.1964    0.0000 C   0  0  0  0  0  0  0  0  0  0  0  0
   -1.8778    4.6956    0.0000 C   0  0  0  0  0  0  0  0  0  0  0  0
   -1.0273    5.9311    0.0000 C   0  0  0  0  0  0  0  0  0  0  0  0
   -1.9731    7.0953    0.0000 C   0  0  0  0  0  0  0  0  0  0  0  0
   -1.4378    8.4966    0.0000 C   0  0  0  0  0  0  0  0  0  0  0  0
   -2.3836    9.6608    0.0000 C   0  0  0  0  0  0  0  0  0  0  0  0
   -3.8647    9.4238    0.0000 C   0  0  0  0  0  0  0  0  0  0  0  0
   -4.4001    8.0226    0.0000 C   0  0  0  0  0  0  0  0  0  0  0  0
   -3.4542    6.8583    0.0000 C   0  0  0  0  0  0  0  0  0  0  0  0
    0.3563    6.5106    0.0000 C   0  0  0  0  0  0  0  0  0  0  0  0
   -0.1568    7.9202    0.0000 C   0  0  0  0  0  0  0  0  0  0  0  0
    0.8074    9.0692    0.0000 C   0  0  0  0  0  0  0  0  0  0  0  0
    2.2846    8.8088    0.0000 C   0  0  0  0  0  0  0  0  0  0  0  0
    2.7977    7.3992    0.0000 C   0  0  0  0  0  0  0  0  0  0  0  0
    4.2749    7.1388    0.0000 C   0  0  0  0  0  0  0  0  0  0  0  0
    4.7713    6.1645    0.0000 O   0  0  0  0  0  0  0  0  0  0  0  0
    5.2391    8.2878    0.0000 C   0  0  0  0  0  0  0  0  0  0  0  0
    6.7163    8.0274    0.0000 C   0  0  0  0  0  0  0  0  0  0  0  0
    7.6805    9.1764    0.0000 C   0  0  0  0  0  0  0  0  0  0  0  0
    7.1674   10.5860    0.0000 C   0  0  0  0  0  0  0  0  0  0  0  0
    5.6902   10.8464    0.0000 C   0  0  0  0  0  0  0  0  0  0  0  0
    4.7260    9.6974    0.0000 C   0  0  0  0  0  0  0  0  0  0  0  0
    1.8335    6.2502    0.0000 C   0  0  0  0  0  0  0  0  0  0  0  0
    2.9354    5.2324    0.0000 C   0  0  0  0  0  0  0  0  0  0  0  0
    3.9350    5.6756    0.0000 O   0  0  0  0  0  0  0  0  0  0  0  0
    3.3121    3.7805    0.0000 O   0  0  0  0  0  0  0  0  0  0  0  0
    2.8440    2.3554    0.0000 C   0  0  0  0  0  0  0  0  0  0  0  0
    4.0796    1.5048    0.0000 O   0  0  0  0  0  0  0  0  0  0  0  0
    1.6798    1.4095    0.0000 C   0  0  0  0  0  0  0  0  0  0  0  0
    2.8289    2.3737    0.0000 C   0  0  0  0  0  0  0  0  0  0  0  0
    3.3419    3.7833    0.0000 N   0  0  0  0  0  0  0  0  0  0  0  0
    4.3061    2.6342    0.0000 N   0  0  0  0  0  0  0  0  0  0  0  0
    5.7156    2.1212    0.0000 C   0  0  0  0  0  0  0  0  0  0  0  0
    5.9761    0.6440    0.0000 C   0  0  0  0  0  0  0  0  0  0  0  0
    7.3857    0.1309    0.0000 C   0  0  0  0  0  0  0  0  0  0  0  0
    7.6461   -1.3463    0.0000 O   0  0  0  0  0  0  0  0  0  0  0  0
    6.4971   -2.3105    0.0000 C   0  0  0  0  0  0  0  0  0  0  0  0
    8.5347    1.0951    0.0000 C   0  0  0  0  0  0  0  0  0  0  0  0
    9.9443    0.5821    0.0000 O   0  0  0  0  0  0  0  0  0  0  0  0
    8.2742    2.5723    0.0000 C   0  0  0  0  0  0  0  0  0  0  0  0
    6.8647    3.0853    0.0000 C   0  0  0  0  0  0  0  0  0  0  0  0
    2.1929    0.0000    0.0000 C   0  0  0  0  0  0  0  0  0  0  0  0
    1.6798   -1.4095    0.0000 C   0  0  0  0  0  0  0  0  0  0  0  0
    0.3808   -2.1595    0.0000 C   0  0  0  0  0  0  0  0  0  0  0  0
   -1.0964   -1.8991    0.0000 C   0  0  0  0  0  0  0  0  0  0  0  0
   -2.0606   -0.7500    0.0000 C   0  0  0  0  0  0  0  0  0  0  0  0
   -2.0606    0.7500    0.0000 C   0  0  0  0  0  0  0  0  0  0  0  0
   -1.0964    1.8991    0.0000 C   0  0  0  0  0  0  0  0  0  0  0  0
    0.3808    2.1595    0.0000 C   0  0  0  0  0  0  0  0  0  0  0  0
  1  2  1  0
  2  3  1  0
  3  4  1  0
  4  5  2  0
  5  6  2  0
  6  7  1  0
  7  8  2  0
  8  9  1  0
  9 10  2  0
 10 11  1  0
 11 12  2  0
  6 13  1  0
 13 14  2  0
 14 15  1  0
 15 16  2  0
 16 17  1  0
 17 18  1  0
 18 19  2  0
 18 20  1  0
 20 21  2  0
 21 22  1  0
 22 23  2  0
 23 24  1  0
 24 25  2  0
 17 26  2  0
 26 27  1  0
 27 28  2  0
 27 29  1  0
 29 30  1  0
 30 31  2  0
 30 32  1  0
 32 33  1  0
 33 34  2  0
 34 35  1  0
 35 36  1  0
 36 37  2  0
 37 38  1  0
 38 39  1  0
 39 40  1  0
 38 41  2  0
 41 42  1  0
 41 43  1  0
 43 44  2  0
 32 45  1  0
 45 46  1  0
 46 47  1  0
 47 48  1  0
 48 49  1  0
 49 50  1  0
 50 51  1  0
 51 52  1  0
 51  4  1  0
 12  7  1  0
 26 13  1  0
 52 32  1  0
 25 20  1  0
 35 33  1  0
 44 36  1  0
M  END
$$$$
