
     RDKit          2D

 71 79  0  0  0  0  0  0  0  0999 V2000
    1.6258    7.7962    0.0000 C   0  0  0  0  0  0  0  0  0  0  0  0
    1.0777    6.3999    0.0000 C   0  0  0  0  0  0  0  0  0  0  0  0
    2.0130    5.2271    0.0000 C   0  0  0  0  0  0  0  0  0  0  0  0
    1.3622    3.8757    0.0000 N   0  0  0  0  0  0  0  0  0  0  0  0
    2.0130    2.5242    0.0000 N   0  0  0  0  0  0  0  0  0  0  0  0
    1.0777    1.3515    0.0000 N   0  0  0  0  0  0  0  0  0  0  0  0
    1.7286    0.0000    0.0000 N   0  0  0  0  0  0  0  0  0  0  0  0
    1.0777   -1.3515    0.0000 C   0  0  0  0  0  0  0  0  0  0  0  0
   -0.3846   -1.6852    0.0000 N   0  0  0  0  0  0  0  0  0  0  0  0
   -1.5574   -0.7500    0.0000 C   0  0  0  0  0  0  0  0  0  0  0  0
   -1.5574    0.7500    0.0000 C   0  0  0  0  0  0  0  0  0  0  0  0
   -2.7301    1.6852    0.0000 C   0  0  0  0  0  0  0  0  0  0  0  0
   -4.1925    1.3515    0.0000 C   0  0  0  0  0  0  0  0  0  0  0  0
   -4.8434   -0.0000    0.0000 C   0  0  0  0  0  0  0  0  0  0  0  0
   -6.3434   -0.0000    0.0000 O   0  0  0  0  0  0  0  0  0  0  0  0
   -4.1925   -1.3515    0.0000 N   0  0  0  0  0  0  0  0  0  0  0  0
   -2.7301   -1.6852    0.0000 C   0  0  0  0  0  0  0  0  0  0  0  0
   -2.3964   -3.1476    0.0000 C   0  0  0  0  0  0  0  0  0  0  0  0
   -3.4959   -4.1679    0.0000 C   0  0  0  0  0  0  0  0  0  0  0  0
   -4.9293   -3.7258    0.0000 C   0  0  0  0  0  0  0  0  0  0  0  0
   -5.2631   -2.2634    0.0000 N   0  0  0  0  0  0  0  0  0  0  0  0
   -6.0289   -4.7460    0.0000 C   0  0  0  0  0  0  0  0  0  0  0  0
   -4.6326   -5.2940    0.0000 C   0  0  0  0  0  0  0  0  0  0  0  0
   -3.9344   -4.9093    0.0000 F   0  0  0  0  0  0  0  0  0  0  0  0
   -4.1904   -6.7274    0.0000 C   0  0  0  0  0  0  0  0  0  0  0  0
   -3.1622   -5.6303    0.0000 C   0  0  0  0  0  0  0  0  0  0  0  0
   -5.0354   -7.9667    0.0000 N   0  0  0  0  0  0  0  0  0  0  0  0
   -6.5312   -8.0788    0.0000 C   0  0  0  0  0  0  0  0  0  0  0  0
   -7.0792   -9.4751    0.0000 O   0  0  0  0  0  0  0  0  0  0  0  0
   -8.5625   -9.6987    0.0000 C   0  0  0  0  0  0  0  0  0  0  0  0
   -9.1105  -11.0950    0.0000 C   0  0  0  0  0  0  0  0  0  0  0  0
  -10.5937  -11.3186    0.0000 C   0  0  0  0  0  0  0  0  0  0  0  0
  -11.1417  -12.7149    0.0000 C   0  0  0  0  0  0  0  0  0  0  0  0
  -10.2065  -13.8876    0.0000 C   0  0  0  0  0  0  0  0  0  0  0  0
  -10.7545  -15.2840    0.0000 N   0  0  0  0  0  0  0  0  0  0  0  0
   -8.7233  -13.6641    0.0000 C   0  0  0  0  0  0  0  0  0  0  0  0
   -8.1752  -12.2678    0.0000 C   0  0  0  0  0  0  0  0  0  0  0  0
   -6.6920  -12.0442    0.0000 O   0  0  0  0  0  0  0  0  0  0  0  0
   -5.7568  -13.2170    0.0000 C   0  0  0  0  0  0  0  0  0  0  0  0
   -6.3048  -14.6133    0.0000 O   0  0  0  0  0  0  0  0  0  0  0  0
   -4.2735  -12.9934    0.0000 O   0  0  0  0  0  0  0  0  0  0  0  0
   -7.5515   -6.9793    0.0000 N   0  0  0  0  0  0  0  0  0  0  0  0
   -7.3279   -5.4960    0.0000 O   0  0  0  0  0  0  0  0  0  0  0  0
   -0.3846    1.6852    0.0000 C   0  0  0  0  0  0  0  0  0  0  0  0
   -0.7184    3.1476    0.0000 O   0  0  0  0  0  0  0  0  0  0  0  0
    3.4754    2.1904    0.0000 C   0  0  0  0  0  0  0  0  0  0  0  0
    3.8092    0.7280    0.0000 C   0  0  0  0  0  0  0  0  0  0  0  0
    2.7096   -0.2922    0.0000 C   0  0  0  0  0  0  0  0  0  0  0  0
    3.0434   -1.7546    0.0000 C   0  0  0  0  0  0  0  0  0  0  0  0
    4.4767   -2.1968    0.0000 C   0  0  0  0  0  0  0  0  0  0  0  0
    4.8105   -3.6591    0.0000 C   0  0  0  0  0  0  0  0  0  0  0  0
    3.7109   -4.6794    0.0000 C   0  0  0  0  0  0  0  0  0  0  0  0
    4.0447   -6.1418    0.0000 C   0  0  0  0  0  0  0  0  0  0  0  0
    5.4781   -6.5839    0.0000 C   0  0  0  0  0  0  0  0  0  0  0  0
    6.5776   -5.5637    0.0000 C   0  0  0  0  0  0  0  0  0  0  0  0
    6.2439   -4.1013    0.0000 C   0  0  0  0  0  0  0  0  0  0  0  0
    7.3434   -3.0810    0.0000 C   0  0  0  0  0  0  0  0  0  0  0  0
    8.7768   -3.5232    0.0000 C   0  0  0  0  0  0  0  0  0  0  0  0
    9.8764   -2.5029    0.0000 C   0  0  0  0  0  0  0  0  0  0  0  0
    9.5426   -1.0405    0.0000 C   0  0  0  0  0  0  0  0  0  0  0  0
   10.6422   -0.0202    0.0000 O   0  0  0  0  0  0  0  0  0  0  0  0
    8.1092   -0.5984    0.0000 C   0  0  0  0  0  0  0  0  0  0  0  0
    7.7755    0.8640    0.0000 O   0  0  0  0  0  0  0  0  0  0  0  0
    7.0097   -1.6186    0.0000 C   0  0  0  0  0  0  0  0  0  0  0  0
    5.5763   -1.1765    0.0000 C   0  0  0  0  0  0  0  0  0  0  0  0
    5.2425    0.2859    0.0000 C   0  0  0  0  0  0  0  0  0  0  0  0
    6.3421    1.3062    0.0000 N   0  0  0  0  0  0  0  0  0  0  0  0
    4.6481    3.1257    0.0000 N   0  0  0  0  0  0  0  0  0  0  0  0
    4.6481    4.6257    0.0000 C   0  0  0  0  0  0  0  0  0  0  0  0
    5.9996    5.2765    0.0000 N   0  0  0  0  0  0  0  0  0  0  0  0
    3.4754    5.5609    0.0000 N   0  0  0  0  0  0  0  0  0  0  0  0
  1  2  1  0
  2  3  1  0
  3  4  2  0
  4  5  1  0
  5  6  1  0
  6  7  1  0
  7  8  2  0
  8  9  2  0
  9 10  1  0
 10 11  2  0
 11 12  1  0
 12 13  1  0
 13 14  1  0
 14 15  2  0
 14 16  1  0
 16 17  1  0
 17 18  1  0
 18 19  1  0
 19 20  2  0
 20 21  1  0
 20 22  1  0
 22 23  2  0
 23 24  1  0
 23 25  1  0
 25 26  2  0
 25 27  1  0
 27 28  2  0
 28 29  1  0
 29 30  1  0
 30 31  1  0
 31 32  2  0
 32 33  1  0
 33 34  2  0
 34 35  1  0
 34 36  1  0
 36 37  2  0
 37 38  1  0
 38 39  1  0
 39 40  2  0
 39 41  1  0
 28 42  1  0
 42 43  1  0
 11 44  1  0
 44 45  2  0
  5 46  1  0
 46 47  1  0
 47 48  2  0
 48 49  1  0
 49 50  2  0
 50 51  1  0
 51 52  2  0
 52 53  1  0
 53 54  2  0
 54 55  1  0
 55 56  2  0
 56 57  1  0
 57 58  2  0
 58 59  1  0
 59 60  2  0
 60 61  1  0
 60 62  1  0
 62 63  1  0
 62 64  2  0
 50 65  1  0
 65 66  2  0
 66 67  1  0
 46 68  2  0
 68 69  1  0
 69 70  1  0
 69 71  2  0
 71  3  1  0
 44  6  1  0
 66 47  1  0
 17 10  1  0
 26 19  1  0
 37 31  1  0
 56 51  1  0
 64 57  1  0
 43 22  1  0
M  END
$$$$
