
     RDKit          2D

 38 41  0  0  0  0  0  0  0  0999 V2000
    9.3555    3.4431    0.0000 C   0  0  0  0  0  0  0  0  0  0  0  0
    8.0877    4.2448    0.0000 O   0  0  0  0  0  0  0  0  0  0  0  0
    6.7595    3.5477    0.0000 C   0  0  0  0  0  0  0  0  0  0  0  0
    6.6991    2.0489    0.0000 C   0  0  0  0  0  0  0  0  0  0  0  0
    5.3709    1.3518    0.0000 C   0  0  0  0  0  0  0  0  0  0  0  0
    4.1031    2.1535    0.0000 C   0  0  0  0  0  0  0  0  0  0  0  0
    2.7750    1.4564    0.0000 N   0  0  0  0  0  0  0  0  0  0  0  0
    3.1339    0.0000    0.0000 N   0  0  0  0  0  0  0  0  0  0  0  0
    2.7750   -1.4564    0.0000 C   0  0  0  0  0  0  0  0  0  0  0  0
    1.7803   -2.5792    0.0000 N   0  0  0  0  0  0  0  0  0  0  0  0
    0.3778   -3.1111    0.0000 C   0  0  0  0  0  0  0  0  0  0  0  0
   -1.1113   -2.9303    0.0000 C   0  0  0  0  0  0  0  0  0  0  0  0
   -2.3458   -2.0782    0.0000 C   0  0  0  0  0  0  0  0  0  0  0  0
   -3.0429   -0.7500    0.0000 C   0  0  0  0  0  0  0  0  0  0  0  0
   -3.0429    0.7500    0.0000 C   0  0  0  0  0  0  0  0  0  0  0  0
   -4.4993    1.1090    0.0000 O   0  0  0  0  0  0  0  0  0  0  0  0
   -2.3458    2.0782    0.0000 N   0  0  0  0  0  0  0  0  0  0  0  0
   -1.1113    2.9303    0.0000 C   0  0  0  0  0  0  0  0  0  0  0  0
    0.3778    3.1111    0.0000 C   0  0  0  0  0  0  0  0  0  0  0  0
    1.7803    2.5792    0.0000 C   0  0  0  0  0  0  0  0  0  0  0  0
    2.3784    3.1062    0.0000 O   0  0  0  0  0  0  0  0  0  0  0  0
   -1.7815    3.5113    0.0000 C   0  0  0  0  0  0  0  0  0  0  0  0
   -0.4782    4.2539    0.0000 C   0  0  0  0  0  0  0  0  0  0  0  0
    1.0182    4.3573    0.0000 C   0  0  0  0  0  0  0  0  0  0  0  0
    1.2503    5.8393    0.0000 O   0  0  0  0  0  0  0  0  0  0  0  0
    2.6498    6.3792    0.0000 C   0  0  0  0  0  0  0  0  0  0  0  0
    3.8171    5.4373    0.0000 C   0  0  0  0  0  0  0  0  0  0  0  0
    5.2165    5.9772    0.0000 C   0  0  0  0  0  0  0  0  0  0  0  0
    5.4486    7.4592    0.0000 C   0  0  0  0  0  0  0  0  0  0  0  0
    4.2813    8.4012    0.0000 C   0  0  0  0  0  0  0  0  0  0  0  0
    2.8819    7.8612    0.0000 C   0  0  0  0  0  0  0  0  0  0  0  0
    2.4114    3.8013    0.0000 C   0  0  0  0  0  0  0  0  0  0  0  0
    3.4253    2.6959    0.0000 C   0  0  0  0  0  0  0  0  0  0  0  0
    3.8592    1.2600    0.0000 N   0  0  0  0  0  0  0  0  0  0  0  0
    3.6271   -0.2219    0.0000 C   0  0  0  0  0  0  0  0  0  0  0  0
    5.0202   -0.7780    0.0000 O   0  0  0  0  0  0  0  0  0  0  0  0
    4.1635    3.6523    0.0000 C   0  0  0  0  0  0  0  0  0  0  0  0
    5.4917    4.3494    0.0000 C   0  0  0  0  0  0  0  0  0  0  0  0
  1  2  1  0
  2  3  1  0
  3  4  2  0
  4  5  1  0
  5  6  2  0
  6  7  1  0
  7  8  1  0
  8  9  2  3
  9 10  1  0
 10 11  1  0
 11 12  1  0
 12 13  1  0
 13 14  1  0
 14 15  1  0
 15 16  2  0
 15 17  1  0
 17 18  1  0
 18 19  1  0
 19 20  1  0
 20 21  2  0
 17 22  1  0
 22 23  1  0
 23 24  1  0
 24 25  1  0
 25 26  1  0
 26 27  2  0
 27 28  1  0
 28 29  2  0
 29 30  1  0
 30 31  2  0
 24 32  1  0
 32 33  1  0
 33 34  1  0
 34 35  1  0
 35 36  2  0
  6 37  1  0
 37 38  2  0
 38  3  1  0
 20  7  1  0
 31 26  1  0
 35  9  1  0
M  END
$$$$
