
     RDKit          2D

 51 55  0  0  0  0  0  0  0  0999 V2000
    0.1536   -4.2440    0.0000 C   0  0  0  0  0  0  0  0  0  0  0  0
   -0.4565   -5.6143    0.0000 C   0  0  0  0  0  0  0  0  0  0  0  0
   -1.9483   -5.7711    0.0000 C   0  0  0  0  0  0  0  0  0  0  0  0
   -2.6983   -7.0701    0.0000 N   0  0  0  0  0  0  0  0  0  0  0  0
   -4.1655   -6.7583    0.0000 C   0  0  0  0  0  0  0  0  0  0  0  0
   -5.3790   -7.6399    0.0000 C   0  0  0  0  0  0  0  0  0  0  0  0
   -5.2222   -9.1317    0.0000 C   0  0  0  0  0  0  0  0  0  0  0  0
   -6.7493   -7.0298    0.0000 C   0  0  0  0  0  0  0  0  0  0  0  0
   -6.9061   -5.5380    0.0000 C   0  0  0  0  0  0  0  0  0  0  0  0
   -8.2765   -4.9279    0.0000 C   0  0  0  0  0  0  0  0  0  0  0  0
   -5.6926   -4.6564    0.0000 N   0  0  0  0  0  0  0  0  0  0  0  0
   -4.3223   -5.2665    0.0000 C   0  0  0  0  0  0  0  0  0  0  0  0
   -2.9520   -4.6564    0.0000 N   0  0  0  0  0  0  0  0  0  0  0  0
   -2.6401   -3.1891    0.0000 C   0  0  0  0  0  0  0  0  0  0  0  0
   -3.7548   -2.1855    0.0000 C   0  0  0  0  0  0  0  0  0  0  0  0
   -5.1814   -2.6490    0.0000 C   0  0  0  0  0  0  0  0  0  0  0  0
   -6.2961   -1.6453    0.0000 C   0  0  0  0  0  0  0  0  0  0  0  0
   -5.9843   -0.1781    0.0000 C   0  0  0  0  0  0  0  0  0  0  0  0
   -7.0990    0.8256    0.0000 N   0  0  0  0  0  0  0  0  0  0  0  0
   -8.4234    0.1214    0.0000 C   0  0  0  0  0  0  0  0  0  0  0  0
   -9.8906    0.4333    0.0000 C   0  0  0  0  0  0  0  0  0  0  0  0
  -10.8141    1.6153    0.0000 C   0  0  0  0  0  0  0  0  0  0  0  0
  -10.7618    3.1144    0.0000 C   0  0  0  0  0  0  0  0  0  0  0  0
  -12.1525    3.6763    0.0000 C   0  0  0  0  0  0  0  0  0  0  0  0
   -9.7581    4.2291    0.0000 C   0  0  0  0  0  0  0  0  0  0  0  0
   -8.2727    4.4379    0.0000 N   0  0  0  0  0  0  0  0  0  0  0  0
   -7.0006    3.6430    0.0000 C   0  0  0  0  0  0  0  0  0  0  0  0
   -5.8186    4.5665    0.0000 O   0  0  0  0  0  0  0  0  0  0  0  0
   -6.5371    2.2164    0.0000 C   0  0  0  0  0  0  0  0  0  0  0  0
   -5.0380    2.1641    0.0000 C   0  0  0  0  0  0  0  0  0  0  0  0
   -4.3338    0.8396    0.0000 C   0  0  0  0  0  0  0  0  0  0  0  0
   -2.8347    0.7873    0.0000 C   0  0  0  0  0  0  0  0  0  0  0  0
   -2.0398    2.0594    0.0000 C   0  0  0  0  0  0  0  0  0  0  0  0
   -0.5407    2.0070    0.0000 N   0  0  0  0  0  0  0  0  0  0  0  0
    0.2542    3.2791    0.0000 C   0  0  0  0  0  0  0  0  0  0  0  0
   -0.4501    4.6035    0.0000 N   0  0  0  0  0  0  0  0  0  0  0  0
    0.3448    5.8756    0.0000 C   0  0  0  0  0  0  0  0  0  0  0  0
   -0.3594    7.2000    0.0000 C   0  0  0  0  0  0  0  0  0  0  0  0
    1.8439    5.8232    0.0000 N   0  0  0  0  0  0  0  0  0  0  0  0
    2.6388    7.0953    0.0000 C   0  0  0  0  0  0  0  0  0  0  0  0
    4.1379    7.0430    0.0000 C   0  0  0  0  0  0  0  0  0  0  0  0
    4.9328    8.3150    0.0000 C   0  0  0  0  0  0  0  0  0  0  0  0
    4.8421    5.7185    0.0000 C   0  0  0  0  0  0  0  0  0  0  0  0
    1.7532    3.2267    0.0000 C   0  0  0  0  0  0  0  0  0  0  0  0
    2.4574    1.9023    0.0000 O   0  0  0  0  0  0  0  0  0  0  0  0
    2.5481    4.4988    0.0000 O   0  0  0  0  0  0  0  0  0  0  0  0
   -2.7440    3.3838    0.0000 C   0  0  0  0  0  0  0  0  0  0  0  0
   -1.9491    4.6559    0.0000 C   0  0  0  0  0  0  0  0  0  0  0  0
   -4.2431    3.4361    0.0000 C   0  0  0  0  0  0  0  0  0  0  0  0
   -4.5577    0.2855    0.0000 C   0  0  0  0  0  0  0  0  0  0  0  0
   -3.4430   -0.7182    0.0000 C   0  0  0  0  0  0  0  0  0  0  0  0
  1  2  1  0
  2  3  1  0
  3  4  2  0
  4  5  1  0
  5  6  2  0
  6  7  1  0
  6  8  1  0
  8  9  2  0
  9 10  1  0
  9 11  1  0
 11 12  2  0
 12 13  1  0
 13 14  1  0
 14 15  1  0
 15 16  2  0
 16 17  1  0
 17 18  2  0
 18 19  1  0
 19 20  1  0
 20 21  1  0
 21 22  2  3
 22 23  1  0
 23 24  1  0
 23 25  2  0
 25 26  2  0
 26 27  1  0
 27 28  2  0
 27 29  1  0
 29 30  1  0
 30 31  2  0
 31 32  1  0
 32 33  2  0
 33 34  1  0
 34 35  2  3
 35 36  1  0
 36 37  2  3
 37 38  1  0
 37 39  1  0
 39 40  1  0
 40 41  2  0
 41 42  1  0
 41 43  1  0
 35 44  1  0
 44 45  2  0
 44 46  1  0
 33 47  1  0
 47 48  1  0
 47 49  2  0
 18 50  1  0
 50 51  2  0
 13  3  1  0
 51 15  1  0
 12  5  1  0
 29 19  1  0
 49 30  1  0
M  END
$$$$
