
     RDKit          2D

 70 78  0  0  0  0  0  0  0  0999 V2000
    2.2913   -0.4185    0.0000 C   0  0  0  0  0  0  0  0  0  0  0  0
    2.6250    1.0439    0.0000 C   0  0  0  0  0  0  0  0  0  0  0  0
    4.0584    1.4860    0.0000 C   0  0  0  0  0  0  0  0  0  0  0  0
    5.2586    0.5863    0.0000 C   0  0  0  0  0  0  0  0  0  0  0  0
    6.4852    1.4497    0.0000 C   0  0  0  0  0  0  0  0  0  0  0  0
    6.0430    2.8830    0.0000 C   0  0  0  0  0  0  0  0  0  0  0  0
    4.5432    2.9055    0.0000 S   0  0  0  0  0  0  0  0  0  0  0  0
    7.0633    3.9826    0.0000 N   0  0  0  0  0  0  0  0  0  0  0  0
    6.6212    5.4160    0.0000 C   0  0  0  0  0  0  0  0  0  0  0  0
    7.6414    6.5156    0.0000 C   0  0  0  0  0  0  0  0  0  0  0  0
    9.1038    6.1818    0.0000 C   0  0  0  0  0  0  0  0  0  0  0  0
   10.1241    7.2814    0.0000 C   0  0  0  0  0  0  0  0  0  0  0  0
    9.6820    8.7147    0.0000 C   0  0  0  0  0  0  0  0  0  0  0  0
   10.7022    9.8143    0.0000 C   0  0  0  0  0  0  0  0  0  0  0  0
   12.1646    9.4805    0.0000 C   0  0  0  0  0  0  0  0  0  0  0  0
   13.1849   10.5801    0.0000 C   0  0  0  0  0  0  0  0  0  0  0  0
   12.7427   12.0134    0.0000 C   0  0  0  0  0  0  0  0  0  0  0  0
   11.2803   12.3472    0.0000 C   0  0  0  0  0  0  0  0  0  0  0  0
   10.2601   11.2477    0.0000 C   0  0  0  0  0  0  0  0  0  0  0  0
    8.7977   11.5814    0.0000 C   0  0  0  0  0  0  0  0  0  0  0  0
    8.4639   13.0438    0.0000 N   0  0  0  0  0  0  0  0  0  0  0  0
    7.1125   13.6947    0.0000 C   0  0  0  0  0  0  0  0  0  0  0  0
    7.1125   15.1947    0.0000 O   0  0  0  0  0  0  0  0  0  0  0  0
    5.7610   13.0438    0.0000 N   0  0  0  0  0  0  0  0  0  0  0  0
    5.4272   11.5814    0.0000 N   0  0  0  0  0  0  0  0  0  0  0  0
    6.3625   10.4087    0.0000 C   0  0  0  0  0  0  0  0  0  0  0  0
    7.8625   10.4087    0.0000 N   0  0  0  0  0  0  0  0  0  0  0  0
    8.2196    9.0485    0.0000 C   0  0  0  0  0  0  0  0  0  0  0  0
    7.1993    7.9489    0.0000 C   0  0  0  0  0  0  0  0  0  0  0  0
    5.7369    8.2827    0.0000 C   0  0  0  0  0  0  0  0  0  0  0  0
    5.2948    9.7161    0.0000 O   0  0  0  0  0  0  0  0  0  0  0  0
    4.7167    7.1831    0.0000 N   0  0  0  0  0  0  0  0  0  0  0  0
    5.1588    5.7498    0.0000 O   0  0  0  0  0  0  0  0  0  0  0  0
    3.2543    7.5169    0.0000 O   0  0  0  0  0  0  0  0  0  0  0  0
    2.2340    6.4173    0.0000 O   0  0  0  0  0  0  0  0  0  0  0  0
    0.7716    6.7511    0.0000 C   0  0  0  0  0  0  0  0  0  0  0  0
   -0.2487    5.6515    0.0000 C   0  0  0  0  0  0  0  0  0  0  0  0
   -1.7110    5.9853    0.0000 C   0  0  0  0  0  0  0  0  0  0  0  0
   -2.7313    4.8857    0.0000 O   0  0  0  0  0  0  0  0  0  0  0  0
   -2.2892    3.4524    0.0000 C   0  0  0  0  0  0  0  0  0  0  0  0
   -2.1532    7.4187    0.0000 C   0  0  0  0  0  0  0  0  0  0  0  0
   -1.1329    8.5182    0.0000 C   0  0  0  0  0  0  0  0  0  0  0  0
    0.3295    8.1845    0.0000 C   0  0  0  0  0  0  0  0  0  0  0  0
    1.3497    9.2840    0.0000 C   0  0  0  0  0  0  0  0  0  0  0  0
    2.8121    8.9503    0.0000 C   0  0  0  0  0  0  0  0  0  0  0  0
    3.8324   10.0498    0.0000 C   0  0  0  0  0  0  0  0  0  0  0  0
    3.3903   11.4832    0.0000 C   0  0  0  0  0  0  0  0  0  0  0  0
    4.5630   12.4184    0.0000 O   0  0  0  0  0  0  0  0  0  0  0  0
    4.5630   13.9184    0.0000 C   0  0  0  0  0  0  0  0  0  0  0  0
    3.3903   14.8537    0.0000 C   0  0  0  0  0  0  0  0  0  0  0  0
    1.9279   14.5199    0.0000 O   0  0  0  0  0  0  0  0  0  0  0  0
    1.2770   13.1684    0.0000 O   0  0  0  0  0  0  0  0  0  0  0  0
    1.9279   11.8170    0.0000 C   0  0  0  0  0  0  0  0  0  0  0  0
    0.9076   10.7174    0.0000 C   0  0  0  0  0  0  0  0  0  0  0  0
    8.5257    3.6488    0.0000 C   0  0  0  0  0  0  0  0  0  0  0  0
    9.5460    4.7484    0.0000 O   0  0  0  0  0  0  0  0  0  0  0  0
    8.9678    2.2155    0.0000 N   0  0  0  0  0  0  0  0  0  0  0  0
   10.4302    1.8817    0.0000 C   0  0  0  0  0  0  0  0  0  0  0  0
   11.4505    2.9813    0.0000 C   0  0  0  0  0  0  0  0  0  0  0  0
   12.9129    2.6475    0.0000 C   0  0  0  0  0  0  0  0  0  0  0  0
   13.9331    3.7471    0.0000 O   0  0  0  0  0  0  0  0  0  0  0  0
   13.3550    1.2141    0.0000 C   0  0  0  0  0  0  0  0  0  0  0  0
   14.8174    0.8804    0.0000 O   0  0  0  0  0  0  0  0  0  0  0  0
   15.2595   -0.5530    0.0000 C   0  0  0  0  0  0  0  0  0  0  0  0
   12.3348    0.1146    0.0000 C   0  0  0  0  0  0  0  0  0  0  0  0
   10.8724    0.4483    0.0000 C   0  0  0  0  0  0  0  0  0  0  0  0
    9.8521   -0.6512    0.0000 O   0  0  0  0  0  0  0  0  0  0  0  0
   10.2942   -2.0846    0.0000 C   0  0  0  0  0  0  0  0  0  0  0  0
    7.9476    1.1159    0.0000 C   0  0  0  0  0  0  0  0  0  0  0  0
    8.3897   -0.3175    0.0000 O   0  0  0  0  0  0  0  0  0  0  0  0
  1  2  1  0
  2  3  1  0
  3  4  2  0
  4  5  1  0
  5  6  2  0
  6  7  1  0
  6  8  1  0
  8  9  1  0
  9 10  1  0
 10 11  2  0
 11 12  1  0
 12 13  2  0
 13 14  1  0
 14 15  2  0
 15 16  1  0
 16 17  2  0
 17 18  1  0
 18 19  2  0
 19 20  1  0
 20 21  2  0
 21 22  1  0
 22 23  2  0
 22 24  1  0
 24 25  1  0
 25 26  2  0
 26 27  2  0
 13 28  1  0
 28 29  2  0
 29 30  1  0
 30 31  2  0
 30 32  1  0
 32 33  1  0
 32 34  1  0
 34 35  1  0
 35 36  1  0
 36 37  2  0
 37 38  1  0
 38 39  1  0
 39 40  1  0
 38 41  2  0
 41 42  1  0
 42 43  2  0
 43 44  1  0
 44 45  2  0
 45 46  1  0
 46 47  2  0
 47 48  1  0
 48 49  1  0
 49 50  1  0
 50 51  1  0
 51 52  1  0
 52 53  1  0
 53 54  2  0
  8 55  1  0
 55 56  2  0
 55 57  1  0
 57 58  1  0
 58 59  2  0
 59 60  1  0
 60 61  1  0
 60 62  2  0
 62 63  1  0
 63 64  1  0
 62 65  1  0
 65 66  2  0
 66 67  1  0
 67 68  1  0
 57 69  1  0
 69 70  2  0
  7  3  1  0
 29 10  1  0
 43 36  1  0
 54 44  1  0
 66 58  1  0
 69  5  1  0
 19 14  1  0
 27 20  1  0
 53 47  1  0
M  END
$$$$
