
     RDKit          2D

 97106  0  0  0  0  0  0  0  0999 V2000
   16.7447    3.7787    0.0000 C   0  0  0  0  0  0  0  0  0  0  0  0
   15.3484    4.3268    0.0000 C   0  0  0  0  0  0  0  0  0  0  0  0
   14.1756    3.3915    0.0000 C   0  0  0  0  0  0  0  0  0  0  0  0
   14.2429    1.8930    0.0000 C   0  0  0  0  0  0  0  0  0  0  0  0
   12.8386    1.3660    0.0000 C   0  0  0  0  0  0  0  0  0  0  0  0
   11.9034    2.5387    0.0000 C   0  0  0  0  0  0  0  0  0  0  0  0
   12.7297    3.7906    0.0000 S   0  0  0  0  0  0  0  0  0  0  0  0
   10.4201    2.3152    0.0000 N   0  0  0  0  0  0  0  0  0  0  0  0
    9.5751    3.5545    0.0000 C   0  0  0  0  0  0  0  0  0  0  0  0
    8.4024    4.4897    0.0000 C   0  0  0  0  0  0  0  0  0  0  0  0
    7.0061    5.0378    0.0000 C   0  0  0  0  0  0  0  0  0  0  0  0
    5.5103    5.1499    0.0000 C   0  0  0  0  0  0  0  0  0  0  0  0
    4.0479    4.8161    0.0000 C   0  0  0  0  0  0  0  0  0  0  0  0
    5.4442    4.2681    0.0000 C   0  0  0  0  0  0  0  0  0  0  0  0
    6.9400    4.1560    0.0000 C   0  0  0  0  0  0  0  0  0  0  0  0
    7.0521    2.6602    0.0000 O   0  0  0  0  0  0  0  0  0  0  0  0
    5.8127    1.8152    0.0000 C   0  0  0  0  0  0  0  0  0  0  0  0
    2.7488    4.0661    0.0000 C   0  0  0  0  0  0  0  0  0  0  0  0
    2.3067    5.4994    0.0000 C   0  0  0  0  0  0  0  0  0  0  0  0
    0.8443    5.8332    0.0000 C   0  0  0  0  0  0  0  0  0  0  0  0
   -0.1760    4.7336    0.0000 C   0  0  0  0  0  0  0  0  0  0  0  0
    0.2662    3.3003    0.0000 C   0  0  0  0  0  0  0  0  0  0  0  0
    1.7286    2.9665    0.0000 C   0  0  0  0  0  0  0  0  0  0  0  0
    1.0777    1.3515    0.0000 C   0  0  0  0  0  0  0  0  0  0  0  0
    1.7286    0.0000    0.0000 N   0  0  0  0  0  0  0  0  0  0  0  0
    1.0777   -1.3515    0.0000 C   0  0  0  0  0  0  0  0  0  0  0  0
    1.7286   -2.7029    0.0000 N   0  0  0  0  0  0  0  0  0  0  0  0
    2.7488   -3.8025    0.0000 N   0  0  0  0  0  0  0  0  0  0  0  0
    4.0479   -4.5525    0.0000 C   0  0  0  0  0  0  0  0  0  0  0  0
    3.4999   -5.9488    0.0000 N   0  0  0  0  0  0  0  0  0  0  0  0
    2.0166   -6.1724    0.0000 O   0  0  0  0  0  0  0  0  0  0  0  0
    5.5103   -4.8863    0.0000 N   0  0  0  0  0  0  0  0  0  0  0  0
    7.0061   -4.7742    0.0000 N   0  0  0  0  0  0  0  0  0  0  0  0
    8.4024   -4.2262    0.0000 N   0  0  0  0  0  0  0  0  0  0  0  0
    9.1524   -5.5252    0.0000 N   0  0  0  0  0  0  0  0  0  0  0  0
    8.4024   -6.8242    0.0000 O   0  0  0  0  0  0  0  0  0  0  0  0
    9.5751   -3.2909    0.0000 C   0  0  0  0  0  0  0  0  0  0  0  0
   10.2260   -4.6424    0.0000 C   0  0  0  0  0  0  0  0  0  0  0  0
   11.7218   -4.7545    0.0000 C   0  0  0  0  0  0  0  0  0  0  0  0
   12.5667   -3.5151    0.0000 C   0  0  0  0  0  0  0  0  0  0  0  0
   14.0625   -3.6272    0.0000 C   0  0  0  0  0  0  0  0  0  0  0  0
   14.7134   -4.9787    0.0000 C   0  0  0  0  0  0  0  0  0  0  0  0
   16.2092   -5.0908    0.0000 C   0  0  0  0  0  0  0  0  0  0  0  0
   16.8600   -6.4422    0.0000 O   0  0  0  0  0  0  0  0  0  0  0  0
   17.0542   -3.8514    0.0000 C   0  0  0  0  0  0  0  0  0  0  0  0
   18.5500   -3.9635    0.0000 O   0  0  0  0  0  0  0  0  0  0  0  0
   19.2008   -5.3149    0.0000 C   0  0  0  0  0  0  0  0  0  0  0  0
   18.3558   -6.5543    0.0000 C   0  0  0  0  0  0  0  0  0  0  0  0
   19.0066   -7.9058    0.0000 C   0  0  0  0  0  0  0  0  0  0  0  0
   18.1617   -9.1451    0.0000 O   0  0  0  0  0  0  0  0  0  0  0  0
   20.5024   -8.0179    0.0000 C   0  0  0  0  0  0  0  0  0  0  0  0
   21.1533   -9.3693    0.0000 O   0  0  0  0  0  0  0  0  0  0  0  0
   21.3474   -6.7785    0.0000 C   0  0  0  0  0  0  0  0  0  0  0  0
   20.6966   -5.4270    0.0000 C   0  0  0  0  0  0  0  0  0  0  0  0
   21.5416   -4.1877    0.0000 O   0  0  0  0  0  0  0  0  0  0  0  0
   23.0374   -4.2998    0.0000 O   0  0  0  0  0  0  0  0  0  0  0  0
   23.8824   -3.0604    0.0000 O   0  0  0  0  0  0  0  0  0  0  0  0
   23.2315   -1.7090    0.0000 O   0  0  0  0  0  0  0  0  0  0  0  0
   24.0765   -0.4696    0.0000 O   0  0  0  0  0  0  0  0  0  0  0  0
   23.4257    0.8818    0.0000 O   0  0  0  0  0  0  0  0  0  0  0  0
   24.2707    2.1212    0.0000 O   0  0  0  0  0  0  0  0  0  0  0  0
   25.7665    2.0091    0.0000 O   0  0  0  0  0  0  0  0  0  0  0  0
   26.6115    3.2485    0.0000 O   0  0  0  0  0  0  0  0  0  0  0  0
   28.1073    3.1364    0.0000 C   0  0  0  0  0  0  0  0  0  0  0  0
   16.4033   -2.4999    0.0000 C   0  0  0  0  0  0  0  0  0  0  0  0
   17.2483   -1.2606    0.0000 O   0  0  0  0  0  0  0  0  0  0  0  0
   16.5975    0.0909    0.0000 O   0  0  0  0  0  0  0  0  0  0  0  0
   17.4425    1.3302    0.0000 O   0  0  0  0  0  0  0  0  0  0  0  0
   16.7916    2.6817    0.0000 O   0  0  0  0  0  0  0  0  0  0  0  0
   17.6366    3.9210    0.0000 O   0  0  0  0  0  0  0  0  0  0  0  0
   16.9858    5.2725    0.0000 O   0  0  0  0  0  0  0  0  0  0  0  0
   17.8308    6.5118    0.0000 O   0  0  0  0  0  0  0  0  0  0  0  0
   17.1799    7.8633    0.0000 O   0  0  0  0  0  0  0  0  0  0  0  0
   18.0249    9.1027    0.0000 O   0  0  0  0  0  0  0  0  0  0  0  0
   17.3741   10.4541    0.0000 O   0  0  0  0  0  0  0  0  0  0  0  0
   18.2191   11.6935    0.0000 C   0  0  0  0  0  0  0  0  0  0  0  0
   19.7149   11.5814    0.0000 C   0  0  0  0  0  0  0  0  0  0  0  0
   20.5599   12.8207    0.0000 C   0  0  0  0  0  0  0  0  0  0  0  0
   22.0557   12.7086    0.0000 O   0  0  0  0  0  0  0  0  0  0  0  0
   19.9090   14.1722    0.0000 C   0  0  0  0  0  0  0  0  0  0  0  0
   18.4132   14.2843    0.0000 C   0  0  0  0  0  0  0  0  0  0  0  0
   17.5683   13.0449    0.0000 C   0  0  0  0  0  0  0  0  0  0  0  0
   16.0725   13.1570    0.0000 O   0  0  0  0  0  0  0  0  0  0  0  0
   14.9075   -2.3879    0.0000 C   0  0  0  0  0  0  0  0  0  0  0  0
   14.2567   -1.0364    0.0000 N   0  0  0  0  0  0  0  0  0  0  0  0
   15.1017    0.2030    0.0000 O   0  0  0  0  0  0  0  0  0  0  0  0
   11.9159   -2.1637    0.0000 C   0  0  0  0  0  0  0  0  0  0  0  0
   10.4201   -2.0516    0.0000 C   0  0  0  0  0  0  0  0  0  0  0  0
   10.8622   -0.6182    0.0000 N   0  0  0  0  0  0  0  0  0  0  0  0
   12.2906   -0.0303    0.0000 C   0  0  0  0  0  0  0  0  0  0  0  0
   13.2258   -1.2031    0.0000 O   0  0  0  0  0  0  0  0  0  0  0  0
   10.8622    0.8818    0.0000 C   0  0  0  0  0  0  0  0  0  0  0  0
   12.0718    0.7668    0.0000 O   0  0  0  0  0  0  0  0  0  0  0  0
   -0.3846   -1.6852    0.0000 N   0  0  0  0  0  0  0  0  0  0  0  0
   -1.5574   -0.7500    0.0000 N   0  0  0  0  0  0  0  0  0  0  0  0
   -1.5574    0.7500    0.0000 C   0  0  0  0  0  0  0  0  0  0  0  0
   -0.3846    1.6852    0.0000 N   0  0  0  0  0  0  0  0  0  0  0  0
  1  2  1  0
  2  3  1  0
  3  4  2  0
  4  5  1  0
  5  6  2  0
  6  7  1  0
  6  8  1  0
  8  9  1  0
  9 10  1  0
 10 11  2  0
 11 12  1  0
 12 13  2  0
 13 14  1  0
 14 15  2  0
 15 16  1  0
 16 17  1  0
 13 18  1  0
 18 19  2  0
 19 20  1  0
 20 21  2  0
 21 22  1  0
 22 23  2  0
 23 24  1  0
 24 25  2  0
 25 26  1  0
 26 27  2  3
 27 28  1  0
 28 29  2  3
 29 30  1  0
 30 31  2  0
 29 32  1  0
 32 33  2  3
 33 34  1  0
 34 35  1  0
 35 36  2  0
 34 37  1  0
 37 38  2  0
 38 39  1  0
 39 40  2  0
 40 41  1  0
 41 42  2  0
 42 43  1  0
 43 44  1  0
 43 45  2  0
 45 46  1  0
 46 47  1  0
 47 48  2  0
 48 49  1  0
 49 50  1  0
 49 51  2  0
 51 52  1  0
 51 53  1  0
 53 54  2  0
 54 55  1  0
 55 56  1  0
 56 57  1  0
 57 58  1  0
 58 59  1  0
 59 60  1  0
 60 61  1  0
 61 62  1  0
 62 63  1  0
 63 64  1  0
 45 65  1  0
 65 66  1  0
 66 67  1  0
 67 68  1  0
 68 69  1  0
 69 70  1  0
 70 71  1  0
 71 72  1  0
 72 73  1  0
 73 74  1  0
 74 75  1  0
 75 76  1  0
 76 77  2  0
 77 78  1  0
 78 79  1  0
 78 80  2  0
 80 81  1  0
 81 82  2  0
 82 83  1  0
 65 84  2  0
 84 85  1  0
 85 86  2  0
 40 87  1  0
 87 88  2  0
 88 89  1  0
 89 90  1  0
 90 91  2  0
 89 92  1  0
 92 93  2  0
 26 94  1  0
 94 95  1  0
 95 96  2  0
 96 97  2  0
  7  3  1  0
 92  8  1  0
 90  5  1  0
 15 10  1  0
 23 18  1  0
 97 24  1  0
 88 37  1  0
 84 41  1  0
 54 47  1  0
 82 76  1  0
M  END
$$$$
