
     RDKit          2D

 94106  0  0  0  0  0  0  0  0999 V2000
  -12.5771   11.7370    0.0000 C   0  0  0  0  0  0  0  0  0  0  0  0
  -13.0406   10.3104    0.0000 C   0  0  0  0  0  0  0  0  0  0  0  0
  -12.0369    9.1957    0.0000 C   0  0  0  0  0  0  0  0  0  0  0  0
  -12.5005    7.7691    0.0000 C   0  0  0  0  0  0  0  0  0  0  0  0
  -11.4968    6.6544    0.0000 C   0  0  0  0  0  0  0  0  0  0  0  0
  -10.0295    6.9662    0.0000 N   0  0  0  0  0  0  0  0  0  0  0  0
   -9.0258    5.8515    0.0000 C   0  0  0  0  0  0  0  0  0  0  0  0
   -7.5586    6.1634    0.0000 C   0  0  0  0  0  0  0  0  0  0  0  0
   -6.5549    5.0487    0.0000 C   0  0  0  0  0  0  0  0  0  0  0  0
   -7.0185    3.6221    0.0000 C   0  0  0  0  0  0  0  0  0  0  0  0
   -6.0148    2.5074    0.0000 C   0  0  0  0  0  0  0  0  0  0  0  0
   -4.5475    2.8192    0.0000 O   0  0  0  0  0  0  0  0  0  0  0  0
   -4.0840    4.2458    0.0000 N   0  0  0  0  0  0  0  0  0  0  0  0
   -2.6168    4.5577    0.0000 C   0  0  0  0  0  0  0  0  0  0  0  0
   -1.1496    4.8695    0.0000 N   0  0  0  0  0  0  0  0  0  0  0  0
   -0.1459    3.7548    0.0000 N   0  0  0  0  0  0  0  0  0  0  0  0
   -0.6094    2.3282    0.0000 O   0  0  0  0  0  0  0  0  0  0  0  0
    0.3943    1.2135    0.0000 C   0  0  0  0  0  0  0  0  0  0  0  0
    1.2760    0.0000    0.0000 O   0  0  0  0  0  0  0  0  0  0  0  0
    0.3943   -1.2135    0.0000 C   0  0  0  0  0  0  0  0  0  0  0  0
   -1.0323   -0.7500    0.0000 C   0  0  0  0  0  0  0  0  0  0  0  0
   -1.0323    0.7500    0.0000 O   0  0  0  0  0  0  0  0  0  0  0  0
    1.8615    1.5254    0.0000 O   0  0  0  0  0  0  0  0  0  0  0  0
    2.3250    2.9520    0.0000 C   0  0  0  0  0  0  0  0  0  0  0  0
    3.7923    3.2638    0.0000 C   0  0  0  0  0  0  0  0  0  0  0  0
    4.2558    4.6904    0.0000 C   0  0  0  0  0  0  0  0  0  0  0  0
    3.2521    5.8051    0.0000 C   0  0  0  0  0  0  0  0  0  0  0  0
    3.7156    7.2317    0.0000 C   0  0  0  0  0  0  0  0  0  0  0  0
    5.1828    7.5436    0.0000 C   0  0  0  0  0  0  0  0  0  0  0  0
    5.6464    8.9702    0.0000 C   0  0  0  0  0  0  0  0  0  0  0  0
    4.6427   10.0849    0.0000 C   0  0  0  0  0  0  0  0  0  0  0  0
    3.1755    9.7730    0.0000 C   0  0  0  0  0  0  0  0  0  0  0  0
    2.7119    8.3464    0.0000 C   0  0  0  0  0  0  0  0  0  0  0  0
    1.2447    8.0346    0.0000 N   0  0  0  0  0  0  0  0  0  0  0  0
    0.2410    9.1493    0.0000 N   0  0  0  0  0  0  0  0  0  0  0  0
    0.7045   10.5759    0.0000 C   0  0  0  0  0  0  0  0  0  0  0  0
   -0.2992   11.6906    0.0000 C   0  0  0  0  0  0  0  0  0  0  0  0
    0.1644   13.1172    0.0000 C   0  0  0  0  0  0  0  0  0  0  0  0
    1.6316   13.4291    0.0000 C   0  0  0  0  0  0  0  0  0  0  0  0
    2.6353   12.3143    0.0000 C   0  0  0  0  0  0  0  0  0  0  0  0
    2.1718   10.8878    0.0000 C   0  0  0  0  0  0  0  0  0  0  0  0
    2.8327   10.4420    0.0000 O   0  0  0  0  0  0  0  0  0  0  0  0
    0.7812    6.6080    0.0000 C   0  0  0  0  0  0  0  0  0  0  0  0
    1.7849    5.4933    0.0000 C   0  0  0  0  0  0  0  0  0  0  0  0
    1.3213    4.0667    0.0000 C   0  0  0  0  0  0  0  0  0  0  0  0
   -0.1459    3.7548    0.0000 C   0  0  0  0  0  0  0  0  0  0  0  0
   -1.1496    4.8695    0.0000 C   0  0  0  0  0  0  0  0  0  0  0  0
   -0.6860    6.2961    0.0000 C   0  0  0  0  0  0  0  0  0  0  0  0
   -1.6897    7.4108    0.0000 N   0  0  0  0  0  0  0  0  0  0  0  0
   -1.2262    8.8374    0.0000 O   0  0  0  0  0  0  0  0  0  0  0  0
   -3.1570    7.0990    0.0000 N   0  0  0  0  0  0  0  0  0  0  0  0
   -4.1607    8.2137    0.0000 C   0  0  0  0  0  0  0  0  0  0  0  0
   -5.6279    7.9018    0.0000 C   0  0  0  0  0  0  0  0  0  0  0  0
   -6.6316    9.0165    0.0000 C   0  0  0  0  0  0  0  0  0  0  0  0
   -6.1680   10.4431    0.0000 C   0  0  0  0  0  0  0  0  0  0  0  0
   -4.7008   10.7550    0.0000 C   0  0  0  0  0  0  0  0  0  0  0  0
   -3.6971    9.6403    0.0000 C   0  0  0  0  0  0  0  0  0  0  0  0
    1.7849    5.4933    0.0000 C   0  0  0  0  0  0  0  0  0  0  0  0
    1.3213    4.0667    0.0000 C   0  0  0  0  0  0  0  0  0  0  0  0
   -6.4783    1.0808    0.0000 C   0  0  0  0  0  0  0  0  0  0  0  0
   -5.5966   -0.1328    0.0000 C   0  0  0  0  0  0  0  0  0  0  0  0
   -4.0966   -0.1328    0.0000 O   0  0  0  0  0  0  0  0  0  0  0  0
   -6.4783   -1.3463    0.0000 O   0  0  0  0  0  0  0  0  0  0  0  0
   -7.9049   -0.8828    0.0000 C   0  0  0  0  0  0  0  0  0  0  0  0
   -7.9049    0.6172    0.0000 C   0  0  0  0  0  0  0  0  0  0  0  0
   -9.3967    0.4605    0.0000 C   0  0  0  0  0  0  0  0  0  0  0  0
  -10.2783    1.6740    0.0000 O   0  0  0  0  0  0  0  0  0  0  0  0
  -10.0068   -0.9099    0.0000 O   0  0  0  0  0  0  0  0  0  0  0  0
   -8.2167    2.0845    0.0000 C   0  0  0  0  0  0  0  0  0  0  0  0
   -7.3780    3.3281    0.0000 O   0  0  0  0  0  0  0  0  0  0  0  0
   -9.6433    2.5480    0.0000 O   0  0  0  0  0  0  0  0  0  0  0  0
   -8.4857    3.3102    0.0000 C   0  0  0  0  0  0  0  0  0  0  0  0
   -9.4894    4.4249    0.0000 C   0  0  0  0  0  0  0  0  0  0  0  0
  -10.9566    4.1131    0.0000 C   0  0  0  0  0  0  0  0  0  0  0  0
  -11.4201    2.6865    0.0000 O   0  0  0  0  0  0  0  0  0  0  0  0
  -11.9603    5.2278    0.0000 N   0  0  0  0  0  0  0  0  0  0  0  0
  -13.4275    4.9159    0.0000 C   0  0  0  0  0  0  0  0  0  0  0  0
  -14.4312    6.0306    0.0000 C   0  0  0  0  0  0  0  0  0  0  0  0
  -13.9677    7.4572    0.0000 C   0  0  0  0  0  0  0  0  0  0  0  0
  -14.9714    8.5719    0.0000 C   0  0  0  0  0  0  0  0  0  0  0  0
  -16.4386    8.2601    0.0000 C   0  0  0  0  0  0  0  0  0  0  0  0
  -17.4423    9.3748    0.0000 C   0  0  0  0  0  0  0  0  0  0  0  0
  -16.9788   10.8014    0.0000 C   0  0  0  0  0  0  0  0  0  0  0  0
  -17.9825   11.9161    0.0000 C   0  0  0  0  0  0  0  0  0  0  0  0
  -19.4497   11.6042    0.0000 C   0  0  0  0  0  0  0  0  0  0  0  0
  -19.9132   10.1776    0.0000 C   0  0  0  0  0  0  0  0  0  0  0  0
  -18.9095    9.0629    0.0000 C   0  0  0  0  0  0  0  0  0  0  0  0
  -19.3730    7.6363    0.0000 C   0  0  0  0  0  0  0  0  0  0  0  0
  -18.4914    6.4228    0.0000 N   0  0  0  0  0  0  0  0  0  0  0  0
  -19.3730    5.2093    0.0000 N   0  0  0  0  0  0  0  0  0  0  0  0
  -20.7996    5.6728    0.0000 N   0  0  0  0  0  0  0  0  0  0  0  0
  -20.7996    7.1728    0.0000 N   0  0  0  0  0  0  0  0  0  0  0  0
  -16.9021    6.8335    0.0000 C   0  0  0  0  0  0  0  0  0  0  0  0
  -15.8984    5.7188    0.0000 C   0  0  0  0  0  0  0  0  0  0  0  0
  1  2  1  0
  2  3  1  0
  3  4  1  0
  4  5  1  0
  5  6  2  0
  6  7  1  0
  7  8  2  0
  8  9  1  0
  9 10  2  0
 10 11  1  0
 11 12  1  0
 12 13  1  0
 13 14  2  0
 14 15  2  0
 15 16  1  0
 16 17  1  0
 17 18  1  0
 18 19  1  0
 19 20  1  0
 20 21  1  0
 21 22  1  0
 18 23  1  0
 23 24  1  0
 24 25  2  0
 25 26  1  0
 26 27  2  0
 27 28  1  0
 28 29  2  0
 29 30  1  0
 30 31  2  0
 31 32  1  0
 32 33  2  0
 33 34  1  0
 34 35  1  0
 35 36  1  0
 36 37  2  0
 37 38  1  0
 38 39  2  0
 39 40  1  0
 40 41  2  0
 41 42  1  0
 34 43  1  0
 43 44  2  0
 44 45  1  0
 45 46  2  0
 46 47  1  0
 47 48  2  0
 48 49  1  0
 49 50  1  0
 49 51  1  0
 51 52  1  0
 52 53  2  0
 53 54  1  0
 54 55  2  0
 55 56  1  0
 56 57  2  0
 27 58  1  0
 58 59  2  0
 11 60  1  0
 60 61  1  0
 61 62  2  0
 61 63  1  0
 63 64  1  0
 64 65  1  0
 65 66  1  0
 66 67  2  0
 66 68  1  0
 65 69  1  0
 69 70  2  0
 69 71  1  0
 10 72  1  0
 72 73  2  0
 73 74  1  0
 74 75  2  0
 74 76  1  0
 76 77  1  0
 77 78  1  0
 78 79  2  0
 79 80  1  0
 80 81  2  0
 81 82  1  0
 82 83  2  0
 83 84  1  0
 84 85  2  0
 85 86  1  0
 86 87  2  0
 87 88  1  0
 88 89  2  0
 89 90  1  0
 90 91  2  0
 91 92  1  0
 81 93  1  0
 93 94  2  0
 76  5  1  0
 94 78  1  0
 73  7  1  0
 87 82  1  0
 92 88  1  0
 59 16  1  0
 65 60  1  0
 22 18  1  0
 59 24  1  0
 33 28  1  0
 41 36  1  0
 48 43  1  0
 57 52  1  0
M  END
$$$$
