
     RDKit          2D

 46 51  0  0  0  0  0  0  0  0999 V2000
    9.1576   -7.4075    0.0000 C   0  0  0  0  0  0  0  0  0  0  0  0
    7.6658   -7.2507    0.0000 C   0  0  0  0  0  0  0  0  0  0  0  0
    7.0557   -5.8804    0.0000 C   0  0  0  0  0  0  0  0  0  0  0  0
    7.9373   -4.6668    0.0000 C   0  0  0  0  0  0  0  0  0  0  0  0
    9.4291   -4.8236    0.0000 C   0  0  0  0  0  0  0  0  0  0  0  0
    5.5639   -5.7236    0.0000 C   0  0  0  0  0  0  0  0  0  0  0  0
    4.9538   -4.3533    0.0000 C   0  0  0  0  0  0  0  0  0  0  0  0
    3.4620   -4.1965    0.0000 N   0  0  0  0  0  0  0  0  0  0  0  0
    2.8519   -2.8261    0.0000 C   0  0  0  0  0  0  0  0  0  0  0  0
    1.3601   -2.6694    0.0000 O   0  0  0  0  0  0  0  0  0  0  0  0
    3.7336   -1.6126    0.0000 C   0  0  0  0  0  0  0  0  0  0  0  0
    3.1235   -0.2423    0.0000 C   0  0  0  0  0  0  0  0  0  0  0  0
    1.6562    0.0696    0.0000 C   0  0  0  0  0  0  0  0  0  0  0  0
    1.1927    1.4961    0.0000 C   0  0  0  0  0  0  0  0  0  0  0  0
    2.1964    2.6109    0.0000 C   0  0  0  0  0  0  0  0  0  0  0  0
    3.6636    2.2990    0.0000 C   0  0  0  0  0  0  0  0  0  0  0  0
    4.8772    3.1807    0.0000 N   0  0  0  0  0  0  0  0  0  0  0  0
    6.0907    2.2990    0.0000 N   0  0  0  0  0  0  0  0  0  0  0  0
    5.6272    0.8724    0.0000 C   0  0  0  0  0  0  0  0  0  0  0  0
    4.1272    0.8724    0.0000 C   0  0  0  0  0  0  0  0  0  0  0  0
    6.1070   -0.5559    0.0000 C   0  0  0  0  0  0  0  0  0  0  0  0
    7.5988   -0.7127    0.0000 N   0  0  0  0  0  0  0  0  0  0  0  0
    8.2089   -2.0830    0.0000 C   0  0  0  0  0  0  0  0  0  0  0  0
    7.3272   -3.2965    0.0000 O   0  0  0  0  0  0  0  0  0  0  0  0
    9.7007   -2.2398    0.0000 O   0  0  0  0  0  0  0  0  0  0  0  0
    5.2253   -1.7694    0.0000 N   0  0  0  0  0  0  0  0  0  0  0  0
    2.5803   -5.4100    0.0000 C   0  0  0  0  0  0  0  0  0  0  0  0
    1.0885   -5.2532    0.0000 C   0  0  0  0  0  0  0  0  0  0  0  0
    0.2069   -6.4667    0.0000 C   0  0  0  0  0  0  0  0  0  0  0  0
    0.8170   -7.8370    0.0000 C   0  0  0  0  0  0  0  0  0  0  0  0
   -0.0647   -9.0506    0.0000 C   0  0  0  0  0  0  0  0  0  0  0  0
    0.5454  -10.4209    0.0000 N   0  0  0  0  0  0  0  0  0  0  0  0
    2.0126  -10.7328    0.0000 C   0  0  0  0  0  0  0  0  0  0  0  0
    3.1273   -9.7291    0.0000 C   0  0  0  0  0  0  0  0  0  0  0  0
    4.5539  -10.1926    0.0000 C   0  0  0  0  0  0  0  0  0  0  0  0
    2.1694  -12.2245    0.0000 N   0  0  0  0  0  0  0  0  0  0  0  0
    0.7991  -12.8346    0.0000 C   0  0  0  0  0  0  0  0  0  0  0  0
    0.3356  -14.2612    0.0000 C   0  0  0  0  0  0  0  0  0  0  0  0
    1.3393  -15.3759    0.0000 C   0  0  0  0  0  0  0  0  0  0  0  0
   -1.1317  -14.5731    0.0000 C   0  0  0  0  0  0  0  0  0  0  0  0
   -2.1354  -13.4584    0.0000 C   0  0  0  0  0  0  0  0  0  0  0  0
   -3.6026  -13.7702    0.0000 C   0  0  0  0  0  0  0  0  0  0  0  0
   -1.6718  -12.0318    0.0000 N   0  0  0  0  0  0  0  0  0  0  0  0
   -0.2046  -11.7199    0.0000 C   0  0  0  0  0  0  0  0  0  0  0  0
    2.3087   -7.9938    0.0000 C   0  0  0  0  0  0  0  0  0  0  0  0
    3.1904   -6.7803    0.0000 C   0  0  0  0  0  0  0  0  0  0  0  0
  1  2  2  0
  2  3  1  0
  3  4  1  0
  4  5  2  0
  3  6  2  0
  6  7  1  0
  7  8  1  0
  8  9  1  0
  9 10  2  0
  9 11  1  0
 11 12  1  0
 12 13  2  0
 13 14  1  0
 14 15  2  0
 15 16  1  0
 16 17  1  0
 17 18  2  0
 18 19  1  0
 19 20  1  0
 19 21  2  0
 21 22  1  0
 22 23  1  0
 23 24  2  0
 23 25  1  0
 21 26  1  0
  8 27  1  0
 27 28  2  0
 28 29  1  0
 29 30  2  0
 30 31  1  0
 31 32  1  0
 32 33  1  0
 33 34  1  0
 34 35  1  0
 33 36  2  0
 36 37  1  0
 37 38  2  0
 38 39  1  0
 38 40  1  0
 40 41  2  0
 41 42  1  0
 41 43  1  0
 43 44  2  0
 30 45  1  0
 45 46  2  0
 26 11  2  0
 46 27  1  0
 20 12  1  0
 44 32  1  0
 20 16  2  0
 44 37  1  0
M  END
$$$$
