
     RDKit          2D

 41 46  0  0  0  0  0  0  0  0999 V2000
   -8.7439   -5.5697    0.0000 O   0  0  0  0  0  0  0  0  0  0  0  0
   -7.8175   -6.7494    0.0000 C   0  0  0  0  0  0  0  0  0  0  0  0
   -8.2273   -8.1923    0.0000 N   0  0  0  0  0  0  0  0  0  0  0  0
   -6.9817   -9.0280    0.0000 C   0  0  0  0  0  0  0  0  0  0  0  0
   -6.9256  -10.5269    0.0000 C   0  0  0  0  0  0  0  0  0  0  0  0
   -8.1957  -11.3250    0.0000 C   0  0  0  0  0  0  0  0  0  0  0  0
   -8.1396  -12.8239    0.0000 C   0  0  0  0  0  0  0  0  0  0  0  0
   -6.8134  -13.5248    0.0000 C   0  0  0  0  0  0  0  0  0  0  0  0
   -5.5433  -12.7268    0.0000 C   0  0  0  0  0  0  0  0  0  0  0  0
   -5.5994  -11.2278    0.0000 C   0  0  0  0  0  0  0  0  0  0  0  0
   -4.3293  -10.4298    0.0000 C   0  0  0  0  0  0  0  0  0  0  0  0
   -3.0032  -11.1307    0.0000 C   0  0  0  0  0  0  0  0  0  0  0  0
   -1.7331  -10.3326    0.0000 C   0  0  0  0  0  0  0  0  0  0  0  0
   -1.7892   -8.8337    0.0000 C   0  0  0  0  0  0  0  0  0  0  0  0
   -0.5191   -8.0356    0.0000 C   0  0  0  0  0  0  0  0  0  0  0  0
   -0.5752   -6.5367    0.0000 O   0  0  0  0  0  0  0  0  0  0  0  0
    0.6949   -5.7386    0.0000 C   0  0  0  0  0  0  0  0  0  0  0  0
    0.6388   -4.2397    0.0000 N   0  0  0  0  0  0  0  0  0  0  0  0
    2.5016   -3.0692    0.0000 C   0  0  0  0  0  0  0  0  0  0  0  0
    2.4017   -2.1823    0.0000 N   0  0  0  0  0  0  0  0  0  0  0  0
    2.8016   -0.8904    0.0000 C   0  0  0  0  0  0  0  0  0  0  0  0
    4.0717   -1.6884    0.0000 N   0  0  0  0  0  0  0  0  0  0  0  0
    4.2397   -3.1790    0.0000 N   0  0  0  0  0  0  0  0  0  0  0  0
    3.1790   -4.2397    0.0000 C   0  0  0  0  0  0  0  0  0  0  0  0
    1.6884   -4.0717    0.0000 N   0  0  0  0  0  0  0  0  0  0  0  0
    0.8904   -2.8016    0.0000 C   0  0  0  0  0  0  0  0  0  0  0  0
    1.3858   -1.3858    0.0000 C   0  0  0  0  0  0  0  0  0  0  0  0
    1.9598    0.0000    0.0000 C   0  0  0  0  0  0  0  0  0  0  0  0
    1.3858    1.3858    0.0000 C   0  0  0  0  0  0  0  0  0  0  0  0
    0.0000    1.9598    0.0000 C   0  0  0  0  0  0  0  0  0  0  0  0
   -1.3858    1.3858    0.0000 C   0  0  0  0  0  0  0  0  0  0  0  0
   -1.9598    0.0000    0.0000 C   0  0  0  0  0  0  0  0  0  0  0  0
   -1.3858   -1.3858    0.0000 C   0  0  0  0  0  0  0  0  0  0  0  0
   -0.0000   -1.9598    0.0000 C   0  0  0  0  0  0  0  0  0  0  0  0
    2.0211   -6.4395    0.0000 O   0  0  0  0  0  0  0  0  0  0  0  0
    2.0772   -7.9385    0.0000 F   0  0  0  0  0  0  0  0  0  0  0  0
   -3.1153   -8.1328    0.0000 C   0  0  0  0  0  0  0  0  0  0  0  0
   -3.1714   -6.6338    0.0000 F   0  0  0  0  0  0  0  0  0  0  0  0
   -4.3854   -8.9308    0.0000 C   0  0  0  0  0  0  0  0  0  0  0  0
   -5.8020   -8.1015    0.0000 N   0  0  0  0  0  0  0  0  0  0  0  0
   -6.3185   -6.6933    0.0000 O   0  0  0  0  0  0  0  0  0  0  0  0
  1  2  2  0
  2  3  1  0
  3  4  2  0
  4  5  1  0
  5  6  2  0
  6  7  1  0
  7  8  2  0
  8  9  1  0
  9 10  2  0
 10 11  1  0
 11 12  2  0
 12 13  1  0
 13 14  2  0
 14 15  1  0
 15 16  1  0
 16 17  1  0
 17 18  2  3
 18 19  1  0
 19 20  2  0
 20 21  1  0
 21 22  2  0
 22 23  1  0
 23 24  2  0
 24 25  1  0
 25 26  1  0
 26 27  1  0
 27 28  1  0
 28 29  1  0
 29 30  1  0
 30 31  1  0
 31 32  1  0
 32 33  1  0
 33 34  1  0
 17 35  1  0
 35 36  1  0
 14 37  1  0
 37 38  1  0
 37 39  2  0
  4 40  1  0
 40 41  1  0
 41  2  1  0
 10  5  1  0
 39 11  1  0
 24 19  1  0
 34 27  1  0
 27 21  1  0
M  END
$$$$
