
     RDKit          2D

 49 54  0  0  0  0  0  0  0  0999 V2000
    2.2961    3.6130    0.0000 C   0  0  0  0  0  0  0  0  0  0  0  0
    1.5461    4.9121    0.0000 C   0  0  0  0  0  0  0  0  0  0  0  0
    2.9164    5.5222    0.0000 C   0  0  0  0  0  0  0  0  0  0  0  0
    0.3326    4.0304    0.0000 O   0  0  0  0  0  0  0  0  0  0  0  0
   -0.8810    4.9121    0.0000 C   0  0  0  0  0  0  0  0  0  0  0  0
   -1.5570    4.4896    0.0000 O   0  0  0  0  0  0  0  0  0  0  0  0
   -0.4174    6.3387    0.0000 C   0  0  0  0  0  0  0  0  0  0  0  0
   -1.9092    6.1819    0.0000 N   0  0  0  0  0  0  0  0  0  0  0  0
   -2.5193    4.8116    0.0000 C   0  0  0  0  0  0  0  0  0  0  0  0
   -1.9409    4.0154    0.0000 O   0  0  0  0  0  0  0  0  0  0  0  0
   -4.0111    4.6548    0.0000 C   0  0  0  0  0  0  0  0  0  0  0  0
   -4.8928    5.8683    0.0000 C   0  0  0  0  0  0  0  0  0  0  0  0
   -6.3846    5.7115    0.0000 C   0  0  0  0  0  0  0  0  0  0  0  0
   -7.1346    4.4125    0.0000 C   0  0  0  0  0  0  0  0  0  0  0  0
   -8.6018    4.7243    0.0000 N   0  0  0  0  0  0  0  0  0  0  0  0
   -8.7586    6.2161    0.0000 C   0  0  0  0  0  0  0  0  0  0  0  0
   -7.3883    6.8262    0.0000 N   0  0  0  0  0  0  0  0  0  0  0  0
   -4.6212    3.2844    0.0000 N   0  0  0  0  0  0  0  0  0  0  0  0
   -3.7395    2.0709    0.0000 C   0  0  0  0  0  0  0  0  0  0  0  0
   -2.2478    2.2277    0.0000 O   0  0  0  0  0  0  0  0  0  0  0  0
   -4.3496    0.7006    0.0000 C   0  0  0  0  0  0  0  0  0  0  0  0
   -3.4680   -0.5129    0.0000 C   0  0  0  0  0  0  0  0  0  0  0  0
   -4.0781   -1.8832    0.0000 C   0  0  0  0  0  0  0  0  0  0  0  0
   -5.5699   -2.0400    0.0000 C   0  0  0  0  0  0  0  0  0  0  0  0
   -6.1800   -3.4103    0.0000 O   0  0  0  0  0  0  0  0  0  0  0  0
   -5.2983   -4.6239    0.0000 C   0  0  0  0  0  0  0  0  0  0  0  0
   -3.8065   -4.4671    0.0000 O   0  0  0  0  0  0  0  0  0  0  0  0
   -5.9084   -5.9942    0.0000 C   0  0  0  0  0  0  0  0  0  0  0  0
   -5.0267   -7.2077    0.0000 C   0  0  0  0  0  0  0  0  0  0  0  0
   -5.6368   -8.5780    0.0000 C   0  0  0  0  0  0  0  0  0  0  0  0
   -7.1286   -8.7348    0.0000 C   0  0  0  0  0  0  0  0  0  0  0  0
   -7.7387  -10.1051    0.0000 O   0  0  0  0  0  0  0  0  0  0  0  0
   -6.8570  -11.3187    0.0000 C   0  0  0  0  0  0  0  0  0  0  0  0
   -5.3652  -11.1619    0.0000 O   0  0  0  0  0  0  0  0  0  0  0  0
   -7.4671  -12.6890    0.0000 O   0  0  0  0  0  0  0  0  0  0  0  0
   -8.0103   -7.5213    0.0000 C   0  0  0  0  0  0  0  0  0  0  0  0
   -7.4002   -6.1510    0.0000 C   0  0  0  0  0  0  0  0  0  0  0  0
   -6.4515   -0.8265    0.0000 C   0  0  0  0  0  0  0  0  0  0  0  0
   -5.8414    0.5438    0.0000 C   0  0  0  0  0  0  0  0  0  0  0  0
   -1.1674    7.6377    0.0000 O   0  0  0  0  0  0  0  0  0  0  0  0
   -0.4174    8.9367    0.0000 C   0  0  0  0  0  0  0  0  0  0  0  0
    0.1927   10.3071    0.0000 C   0  0  0  0  0  0  0  0  0  0  0  0
   -0.9221   11.3108    0.0000 C   0  0  0  0  0  0  0  0  0  0  0  0
   -2.2211   10.5608    0.0000 C   0  0  0  0  0  0  0  0  0  0  0  0
   -1.9092    9.0935    0.0000 C   0  0  0  0  0  0  0  0  0  0  0  0
    1.0826    8.9367    0.0000 C   0  0  0  0  0  0  0  0  0  0  0  0
    1.8326   10.2358    0.0000 O   0  0  0  0  0  0  0  0  0  0  0  0
    1.8326    7.6377    0.0000 C   0  0  0  0  0  0  0  0  0  0  0  0
    1.0826    6.3387    0.0000 C   0  0  0  0  0  0  0  0  0  0  0  0
  1  2  1  0
  2  3  1  0
  2  4  1  0
  4  5  1  0
  5  6  2  0
  5  7  1  0
  7  8  1  0
  8  9  1  0
  9 10  2  0
  9 11  1  0
 11 12  1  0
 12 13  1  0
 13 14  2  0
 14 15  1  0
 15 16  2  0
 16 17  1  0
 11 18  1  0
 18 19  1  0
 19 20  2  0
 19 21  1  0
 21 22  2  0
 22 23  1  0
 23 24  2  0
 24 25  1  0
 25 26  1  0
 26 27  2  0
 26 28  1  0
 28 29  2  0
 29 30  1  0
 30 31  2  0
 31 32  1  0
 32 33  1  0
 33 34  2  0
 33 35  1  0
 31 36  1  0
 36 37  2  0
 24 38  1  0
 38 39  2  0
  7 40  1  0
 40 41  1  0
 41 42  1  0
 42 43  1  0
 43 44  1  0
 44 45  1  0
 41 46  1  0
 46 47  2  0
 46 48  1  0
 48 49  1  0
 49  2  1  0
 49  7  1  0
 17 13  1  0
 39 21  1  0
 45 41  1  0
 37 28  1  0
M  END
$$$$
