
     RDKit          2D

 61 68  0  0  0  0  0  0  0  0999 V2000
   -0.8379    6.3429    0.0000 C   0  0  0  0  0  0  0  0  0  0  0  0
    0.4795    5.6255    0.0000 O   0  0  0  0  0  0  0  0  0  0  0  0
    1.7594    6.4077    0.0000 C   0  0  0  0  0  0  0  0  0  0  0  0
    1.7220    7.9072    0.0000 C   0  0  0  0  0  0  0  0  0  0  0  0
    3.0019    8.6894    0.0000 C   0  0  0  0  0  0  0  0  0  0  0  0
    4.3193    7.9720    0.0000 C   0  0  0  0  0  0  0  0  0  0  0  0
    5.5992    8.7541    0.0000 N   0  0  0  0  0  0  0  0  0  0  0  0
    4.3567    6.4725    0.0000 C   0  0  0  0  0  0  0  0  0  0  0  0
    3.0767    5.6903    0.0000 C   0  0  0  0  0  0  0  0  0  0  0  0
    3.1141    4.1908    0.0000 N   0  0  0  0  0  0  0  0  0  0  0  0
    4.4315    3.4734    0.0000 C   0  0  0  0  0  0  0  0  0  0  0  0
    3.4962    2.3006    0.0000 C   0  0  0  0  0  0  0  0  0  0  0  0
    4.0442    0.9043    0.0000 O   0  0  0  0  0  0  0  0  0  0  0  0
    2.0130    2.5242    0.0000 N   0  0  0  0  0  0  0  0  0  0  0  0
    1.0777    1.3515    0.0000 C   0  0  0  0  0  0  0  0  0  0  0  0
    1.7286    0.0000    0.0000 O   0  0  0  0  0  0  0  0  0  0  0  0
    1.0777   -1.3515    0.0000 N   0  0  0  0  0  0  0  0  0  0  0  0
   -0.3846   -1.6852    0.0000 C   0  0  0  0  0  0  0  0  0  0  0  0
   -1.5574   -0.7500    0.0000 N   0  0  0  0  0  0  0  0  0  0  0  0
   -1.5574    0.7500    0.0000 C   0  0  0  0  0  0  0  0  0  0  0  0
   -2.9088    1.4008    0.0000 C   0  0  0  0  0  0  0  0  0  0  0  0
   -3.0209    2.8966    0.0000 C   0  0  0  0  0  0  0  0  0  0  0  0
   -1.7816    3.7416    0.0000 O   0  0  0  0  0  0  0  0  0  0  0  0
   -4.3724    3.5475    0.0000 C   0  0  0  0  0  0  0  0  0  0  0  0
   -5.6118    2.7025    0.0000 C   0  0  0  0  0  0  0  0  0  0  0  0
   -5.4997    1.2067    0.0000 C   0  0  0  0  0  0  0  0  0  0  0  0
   -6.7390    0.3617    0.0000 O   0  0  0  0  0  0  0  0  0  0  0  0
   -4.1482    0.5558    0.0000 N   0  0  0  0  0  0  0  0  0  0  0  0
   -4.0361   -0.9400    0.0000 C   0  0  0  0  0  0  0  0  0  0  0  0
   -5.2755   -1.7849    0.0000 C   0  0  0  0  0  0  0  0  0  0  0  0
   -6.6269   -1.1341    0.0000 C   0  0  0  0  0  0  0  0  0  0  0  0
   -7.8663   -1.9791    0.0000 C   0  0  0  0  0  0  0  0  0  0  0  0
   -7.7542   -3.4749    0.0000 C   0  0  0  0  0  0  0  0  0  0  0  0
   -8.9935   -4.3199    0.0000 C   0  0  0  0  0  0  0  0  0  0  0  0
  -10.3450   -3.6691    0.0000 C   0  0  0  0  0  0  0  0  0  0  0  0
  -11.5844   -4.5140    0.0000 C   0  0  0  0  0  0  0  0  0  0  0  0
  -11.4723   -6.0098    0.0000 C   0  0  0  0  0  0  0  0  0  0  0  0
  -10.1208   -6.6607    0.0000 C   0  0  0  0  0  0  0  0  0  0  0  0
   -8.8814   -5.8157    0.0000 C   0  0  0  0  0  0  0  0  0  0  0  0
   -7.5300   -6.4665    0.0000 C   0  0  0  0  0  0  0  0  0  0  0  0
   -6.2091   -5.7557    0.0000 N   0  0  0  0  0  0  0  0  0  0  0  0
   -5.1249   -6.7923    0.0000 N   0  0  0  0  0  0  0  0  0  0  0  0
   -5.7757   -8.1438    0.0000 N   0  0  0  0  0  0  0  0  0  0  0  0
   -7.2622   -7.9424    0.0000 N   0  0  0  0  0  0  0  0  0  0  0  0
   -6.4027   -4.1257    0.0000 C   0  0  0  0  0  0  0  0  0  0  0  0
   -5.1634   -3.2807    0.0000 C   0  0  0  0  0  0  0  0  0  0  0  0
   -0.3846    1.6852    0.0000 C   0  0  0  0  0  0  0  0  0  0  0  0
   -0.7184    3.1476    0.0000 O   0  0  0  0  0  0  0  0  0  0  0  0
    5.4240    2.3487    0.0000 N   0  0  0  0  0  0  0  0  0  0  0  0
    6.8943    2.6459    0.0000 C   0  0  0  0  0  0  0  0  0  0  0  0
    7.8868    1.5213    0.0000 C   0  0  0  0  0  0  0  0  0  0  0  0
    7.4090    0.0994    0.0000 C   0  0  0  0  0  0  0  0  0  0  0  0
    8.4016   -1.0253    0.0000 C   0  0  0  0  0  0  0  0  0  0  0  0
    9.8718   -0.7281    0.0000 C   0  0  0  0  0  0  0  0  0  0  0  0
   10.3496    0.6938    0.0000 C   0  0  0  0  0  0  0  0  0  0  0  0
    9.3570    1.8185    0.0000 C   0  0  0  0  0  0  0  0  0  0  0  0
    9.8348    3.2404    0.0000 O   0  0  0  0  0  0  0  0  0  0  0  0
   11.3050    3.5376    0.0000 C   0  0  0  0  0  0  0  0  0  0  0  0
    7.3720    4.0678    0.0000 N   0  0  0  0  0  0  0  0  0  0  0  0
    6.3795    5.1925    0.0000 N   0  0  0  0  0  0  0  0  0  0  0  0
    4.9092    4.8953    0.0000 N   0  0  0  0  0  0  0  0  0  0  0  0
  1  2  1  0
  2  3  1  0
  3  4  2  0
  4  5  1  0
  5  6  2  0
  6  7  1  0
  6  8  1  0
  8  9  2  0
  9 10  1  0
 10 11  1  0
 11 12  1  0
 12 13  2  0
 12 14  1  0
 14 15  1  0
 15 16  1  0
 16 17  1  0
 17 18  2  0
 18 19  2  0
 19 20  1  0
 20 21  2  3
 21 22  1  0
 22 23  2  0
 22 24  1  0
 24 25  2  0
 25 26  1  0
 26 27  2  0
 26 28  1  0
 28 29  1  0
 29 30  1  0
 30 31  2  0
 31 32  1  0
 32 33  2  0
 33 34  1  0
 34 35  2  0
 35 36  1  0
 36 37  2  0
 37 38  1  0
 38 39  2  0
 39 40  1  0
 40 41  2  0
 41 42  1  0
 42 43  2  0
 43 44  1  0
 33 45  1  0
 45 46  2  0
 20 47  1  0
 47 48  2  0
 11 49  1  0
 49 50  2  0
 50 51  1  0
 51 52  2  0
 52 53  1  0
 53 54  2  0
 54 55  1  0
 55 56  2  0
 56 57  1  0
 57 58  1  0
 50 59  1  0
 59 60  2  0
 60 61  1  0
  9  3  1  0
 61 11  1  0
 47 15  1  0
 56 51  1  0
 28 21  1  0
 46 30  1  0
 39 34  1  0
 44 40  1  0
M  END
$$$$
