
     RDKit          2D

 38 43  0  0  0  0  0  0  0  0999 V2000
    9.0952    4.2402    0.0000 C   0  0  0  0  0  0  0  0  0  0  0  0
    7.6856    4.7532    0.0000 C   0  0  0  0  0  0  0  0  0  0  0  0
    6.5366    3.7891    0.0000 C   0  0  0  0  0  0  0  0  0  0  0  0
    5.1270    4.3021    0.0000 C   0  0  0  0  0  0  0  0  0  0  0  0
    3.9780    3.3379    0.0000 C   0  0  0  0  0  0  0  0  0  0  0  0
    4.2384    1.8607    0.0000 N   0  0  0  0  0  0  0  0  0  0  0  0
    3.0894    0.8965    0.0000 C   0  0  0  0  0  0  0  0  0  0  0  0
    2.2087    1.9388    0.0000 N   0  0  0  0  0  0  0  0  0  0  0  0
    2.3093    1.8336    0.0000 N   0  0  0  0  0  0  0  0  0  0  0  0
    1.4194    2.8868    0.0000 C   0  0  0  0  0  0  0  0  0  0  0  0
    2.5684    3.8509    0.0000 N   0  0  0  0  0  0  0  0  0  0  0  0
    2.3079    5.3281    0.0000 C   0  0  0  0  0  0  0  0  0  0  0  0
    0.8984    5.8412    0.0000 C   0  0  0  0  0  0  0  0  0  0  0  0
    0.6379    7.3184    0.0000 C   0  0  0  0  0  0  0  0  0  0  0  0
   -0.7716    7.8314    0.0000 C   0  0  0  0  0  0  0  0  0  0  0  0
   -1.9207    6.8672    0.0000 C   0  0  0  0  0  0  0  0  0  0  0  0
   -3.3302    7.3803    0.0000 C   0  0  0  0  0  0  0  0  0  0  0  0
   -3.5907    8.8575    0.0000 C   0  0  0  0  0  0  0  0  0  0  0  0
   -5.0002    9.3705    0.0000 C   0  0  0  0  0  0  0  0  0  0  0  0
   -6.1493    8.4063    0.0000 C   0  0  0  0  0  0  0  0  0  0  0  0
   -5.8888    6.9291    0.0000 C   0  0  0  0  0  0  0  0  0  0  0  0
   -4.4793    6.4161    0.0000 C   0  0  0  0  0  0  0  0  0  0  0  0
   -4.2188    4.9389    0.0000 C   0  0  0  0  0  0  0  0  0  0  0  0
   -2.8706    4.2813    0.0000 N   0  0  0  0  0  0  0  0  0  0  0  0
   -3.0794    2.7959    0.0000 N   0  0  0  0  0  0  0  0  0  0  0  0
   -4.5566    2.5354    0.0000 N   0  0  0  0  0  0  0  0  0  0  0  0
   -5.2608    3.8599    0.0000 N   0  0  0  0  0  0  0  0  0  0  0  0
   -1.6602    5.3900    0.0000 C   0  0  0  0  0  0  0  0  0  0  0  0
   -0.2507    4.8770    0.0000 C   0  0  0  0  0  0  0  0  0  0  0  0
    1.6798    1.4095    0.0000 C   0  0  0  0  0  0  0  0  0  0  0  0
    2.1929    0.0000    0.0000 C   0  0  0  0  0  0  0  0  0  0  0  0
    1.6798   -1.4095    0.0000 C   0  0  0  0  0  0  0  0  0  0  0  0
    0.3808   -2.1595    0.0000 C   0  0  0  0  0  0  0  0  0  0  0  0
   -1.0964   -1.8991    0.0000 C   0  0  0  0  0  0  0  0  0  0  0  0
   -2.0606   -0.7500    0.0000 C   0  0  0  0  0  0  0  0  0  0  0  0
   -2.0606    0.7500    0.0000 C   0  0  0  0  0  0  0  0  0  0  0  0
   -1.0964    1.8991    0.0000 C   0  0  0  0  0  0  0  0  0  0  0  0
    0.3808    2.1595    0.0000 C   0  0  0  0  0  0  0  0  0  0  0  0
  1  2  1  0
  2  3  1  0
  3  4  1  0
  4  5  1  0
  5  6  2  0
  6  7  1  0
  7  8  2  0
  8  9  1  0
  9 10  2  0
 10 11  1  0
 11 12  1  0
 12 13  1  0
 13 14  2  0
 14 15  1  0
 15 16  2  0
 16 17  1  0
 17 18  2  0
 18 19  1  0
 19 20  2  0
 20 21  1  0
 21 22  2  0
 22 23  1  0
 23 24  2  0
 24 25  1  0
 25 26  2  0
 26 27  1  0
 16 28  1  0
 28 29  2  0
 10 30  1  0
 30 31  1  0
 31 32  1  0
 32 33  1  0
 33 34  1  0
 34 35  1  0
 35 36  1  0
 36 37  1  0
 37 38  1  0
 11  5  1  0
 29 13  1  0
 38 30  1  0
 30  7  1  0
 22 17  1  0
 27 23  1  0
M  END
$$$$
