
     RDKit          2D

 43 48  0  0  0  0  0  0  0  0999 V2000
   14.1813   -7.1129    0.0000 C   0  0  0  0  0  0  0  0  0  0  0  0
   13.5406   -5.7566    0.0000 C   0  0  0  0  0  0  0  0  0  0  0  0
   12.0457   -5.6333    0.0000 C   0  0  0  0  0  0  0  0  0  0  0  0
   11.0673   -6.7702    0.0000 C   0  0  0  0  0  0  0  0  0  0  0  0
    9.6836   -6.1910    0.0000 C   0  0  0  0  0  0  0  0  0  0  0  0
    9.8069   -4.6961    0.0000 C   0  0  0  0  0  0  0  0  0  0  0  0
   11.2668   -4.3514    0.0000 S   0  0  0  0  0  0  0  0  0  0  0  0
    8.5739   -3.8419    0.0000 N   0  0  0  0  0  0  0  0  0  0  0  0
    8.7752   -2.3555    0.0000 C   0  0  0  0  0  0  0  0  0  0  0  0
    8.5074   -0.8796    0.0000 C   0  0  0  0  0  0  0  0  0  0  0  0
    7.7966    0.4413    0.0000 C   0  0  0  0  0  0  0  0  0  0  0  0
    6.7124    1.4779    0.0000 C   0  0  0  0  0  0  0  0  0  0  0  0
    5.3610    2.1287    0.0000 C   0  0  0  0  0  0  0  0  0  0  0  0
    6.0718    0.8078    0.0000 C   0  0  0  0  0  0  0  0  0  0  0  0
    7.1560   -0.2287    0.0000 C   0  0  0  0  0  0  0  0  0  0  0  0
    6.3017   -1.4617    0.0000 O   0  0  0  0  0  0  0  0  0  0  0  0
    4.8068   -1.3385    0.0000 C   0  0  0  0  0  0  0  0  0  0  0  0
    3.8745    2.3301    0.0000 C   0  0  0  0  0  0  0  0  0  0  0  0
    4.3805    3.7422    0.0000 C   0  0  0  0  0  0  0  0  0  0  0  0
    3.4106    4.8864    0.0000 C   0  0  0  0  0  0  0  0  0  0  0  0
    1.9347    4.6186    0.0000 C   0  0  0  0  0  0  0  0  0  0  0  0
    1.4287    3.2065    0.0000 C   0  0  0  0  0  0  0  0  0  0  0  0
    2.3986    2.0623    0.0000 C   0  0  0  0  0  0  0  0  0  0  0  0
    1.0777    1.3515    0.0000 C   0  0  0  0  0  0  0  0  0  0  0  0
    1.7286    0.0000    0.0000 N   0  0  0  0  0  0  0  0  0  0  0  0
    1.0777   -1.3515    0.0000 N   0  0  0  0  0  0  0  0  0  0  0  0
   -0.3846   -1.6852    0.0000 C   0  0  0  0  0  0  0  0  0  0  0  0
   -1.5574   -0.7500    0.0000 C   0  0  0  0  0  0  0  0  0  0  0  0
   -1.5574    0.7500    0.0000 C   0  0  0  0  0  0  0  0  0  0  0  0
   -0.3846    1.6852    0.0000 N   0  0  0  0  0  0  0  0  0  0  0  0
   -0.5432   -4.0465    0.0000 C   0  0  0  0  0  0  0  0  0  0  0  0
   -1.9590   -4.5419    0.0000 C   0  0  0  0  0  0  0  0  0  0  0  0
    0.1676   -5.3674    0.0000 C   0  0  0  0  0  0  0  0  0  0  0  0
    1.2518   -6.4040    0.0000 C   0  0  0  0  0  0  0  0  0  0  0  0
    0.3976   -7.6370    0.0000 O   0  0  0  0  0  0  0  0  0  0  0  0
    2.6033   -7.0548    0.0000 N   0  0  0  0  0  0  0  0  0  0  0  0
    4.0897   -7.2562    0.0000 C   0  0  0  0  0  0  0  0  0  0  0  0
    5.5656   -6.9883    0.0000 C   0  0  0  0  0  0  0  0  0  0  0  0
    6.8865   -6.2775    0.0000 N   0  0  0  0  0  0  0  0  0  0  0  0
    8.3273   -6.8317    0.0000 C   0  0  0  0  0  0  0  0  0  0  0  0
    8.2041   -8.3267    0.0000 O   0  0  0  0  0  0  0  0  0  0  0  0
    7.9231   -5.1933    0.0000 C   0  0  0  0  0  0  0  0  0  0  0  0
    8.7247   -6.1064    0.0000 O   0  0  0  0  0  0  0  0  0  0  0  0
  1  2  1  0
  2  3  1  0
  3  4  2  0
  4  5  1  0
  5  6  2  0
  6  7  1  0
  6  8  1  0
  8  9  1  0
  9 10  1  0
 10 11  2  0
 11 12  1  0
 12 13  2  0
 13 14  1  0
 14 15  2  0
 15 16  1  0
 16 17  1  0
 13 18  1  0
 18 19  2  0
 19 20  1  0
 20 21  2  0
 21 22  1  0
 22 23  2  0
 23 24  1  0
 24 25  2  0
 25 26  1  0
 26 27  2  0
 27 28  1  0
 28 29  1  0
 29 30  1  0
 27 31  1  0
 31 32  1  0
 31 33  2  3
 33 34  1  0
 34 35  2  0
 34 36  1  0
 36 37  1  0
 37 38  1  0
 38 39  1  0
 39 40  1  0
 40 41  2  0
 39 42  1  0
 42 43  2  0
  7  3  1  0
 42  8  1  0
 40  5  1  0
 15 10  1  0
 23 18  1  0
 30 24  1  0
M  END
$$$$
