
     RDKit          2D

 59 70  0  0  0  0  0  0  0  0999 V2000
  -10.4301   -0.4309    0.0000 C   0  0  0  0  0  0  0  0  0  0  0  0
   -9.4265   -1.5456    0.0000 C   0  0  0  0  0  0  0  0  0  0  0  0
   -9.8900   -2.9722    0.0000 C   0  0  0  0  0  0  0  0  0  0  0  0
  -11.3166   -3.4357    0.0000 N   0  0  0  0  0  0  0  0  0  0  0  0
  -11.3166   -4.9357    0.0000 C   0  0  0  0  0  0  0  0  0  0  0  0
  -12.4313   -5.9394    0.0000 C   0  0  0  0  0  0  0  0  0  0  0  0
  -13.8579   -5.4759    0.0000 C   0  0  0  0  0  0  0  0  0  0  0  0
  -12.1194   -7.4066    0.0000 C   0  0  0  0  0  0  0  0  0  0  0  0
  -10.6928   -7.8701    0.0000 C   0  0  0  0  0  0  0  0  0  0  0  0
  -10.3810   -9.3373    0.0000 C   0  0  0  0  0  0  0  0  0  0  0  0
   -9.5781   -6.8664    0.0000 N   0  0  0  0  0  0  0  0  0  0  0  0
   -9.8900   -5.3992    0.0000 C   0  0  0  0  0  0  0  0  0  0  0  0
   -9.0083   -4.1857    0.0000 N   0  0  0  0  0  0  0  0  0  0  0  0
   -7.5083   -4.1857    0.0000 C   0  0  0  0  0  0  0  0  0  0  0  0
   -6.7583   -2.8866    0.0000 C   0  0  0  0  0  0  0  0  0  0  0  0
   -5.2583   -2.8866    0.0000 C   0  0  0  0  0  0  0  0  0  0  0  0
   -4.5083   -1.5876    0.0000 C   0  0  0  0  0  0  0  0  0  0  0  0
   -5.2583   -0.2886    0.0000 C   0  0  0  0  0  0  0  0  0  0  0  0
   -4.5083    1.0105    0.0000 N   0  0  0  0  0  0  0  0  0  0  0  0
   -5.4725    2.1595    0.0000 C   0  0  0  0  0  0  0  0  0  0  0  0
   -6.9502    3.1356    0.0000 N   0  0  0  0  0  0  0  0  0  0  0  0
   -6.9894    4.6351    0.0000 C   0  0  0  0  0  0  0  0  0  0  0  0
   -5.8073    5.5586    0.0000 C   0  0  0  0  0  0  0  0  0  0  0  0
   -6.3204    6.9681    0.0000 C   0  0  0  0  0  0  0  0  0  0  0  0
   -5.8073    8.3777    0.0000 C   0  0  0  0  0  0  0  0  0  0  0  0
   -4.5083    9.1277    0.0000 C   0  0  0  0  0  0  0  0  0  0  0  0
   -3.0311    8.8672    0.0000 C   0  0  0  0  0  0  0  0  0  0  0  0
   -2.5181   10.2768    0.0000 N   0  0  0  0  0  0  0  0  0  0  0  0
   -1.0408   10.5372    0.0000 N   0  0  0  0  0  0  0  0  0  0  0  0
   -1.8981    9.3063    0.0000 N   0  0  0  0  0  0  0  0  0  0  0  0
   -8.2329    5.4739    0.0000 C   0  0  0  0  0  0  0  0  0  0  0  0
   -7.8195    6.9158    0.0000 N   0  0  0  0  0  0  0  0  0  0  0  0
   -0.0767    9.3882    0.0000 O   0  0  0  0  0  0  0  0  0  0  0  0
   -0.5897    7.9786    0.0000 N   0  0  0  0  0  0  0  0  0  0  0  0
    0.3745    6.8296    0.0000 C   0  0  0  0  0  0  0  0  0  0  0  0
   -0.1385    5.4200    0.0000 O   0  0  0  0  0  0  0  0  0  0  0  0
    1.8517    7.0900    0.0000 C   0  0  0  0  0  0  0  0  0  0  0  0
    2.8159    5.9410    0.0000 C   0  0  0  0  0  0  0  0  0  0  0  0
    4.2931    6.2014    0.0000 C   0  0  0  0  0  0  0  0  0  0  0  0
    4.8061    7.6110    0.0000 C   0  0  0  0  0  0  0  0  0  0  0  0
    3.8419    8.7600    0.0000 C   0  0  0  0  0  0  0  0  0  0  0  0
    2.3647    8.4996    0.0000 C   0  0  0  0  0  0  0  0  0  0  0  0
   -2.0669    7.7181    0.0000 C   0  0  0  0  0  0  0  0  0  0  0  0
   -2.0669    6.2181    0.0000 N   0  0  0  0  0  0  0  0  0  0  0  0
   -3.0311    5.0691    0.0000 C   0  0  0  0  0  0  0  0  0  0  0  0
   -1.7321    4.3191    0.0000 C   0  0  0  0  0  0  0  0  0  0  0  0
   -1.2190    2.9095    0.0000 C   0  0  0  0  0  0  0  0  0  0  0  0
   -1.7321    1.5000    0.0000 C   0  0  0  0  0  0  0  0  0  0  0  0
   -0.4330    0.7500    0.0000 C   0  0  0  0  0  0  0  0  0  0  0  0
    0.8660    0.0000    0.0000 C   0  0  0  0  0  0  0  0  0  0  0  0
   -0.4330   -0.7500    0.0000 C   0  0  0  0  0  0  0  0  0  0  0  0
   -1.7321   -1.5000    0.0000 N   0  0  0  0  0  0  0  0  0  0  0  0
   -3.0311   -0.7500    0.0000 C   0  0  0  0  0  0  0  0  0  0  0  0
   -3.6682   -1.3653    0.0000 O   0  0  0  0  0  0  0  0  0  0  0  0
   -3.0311    0.7500    0.0000 C   0  0  0  0  0  0  0  0  0  0  0  0
   -4.5083    4.8086    0.0000 C   0  0  0  0  0  0  0  0  0  0  0  0
   -5.4725    3.6595    0.0000 C   0  0  0  0  0  0  0  0  0  0  0  0
   -6.7583   -0.2886    0.0000 C   0  0  0  0  0  0  0  0  0  0  0  0
   -7.5083   -1.5876    0.0000 C   0  0  0  0  0  0  0  0  0  0  0  0
  1  2  1  0
  2  3  1  0
  3  4  2  0
  4  5  1  0
  5  6  2  0
  6  7  1  0
  6  8  1  0
  8  9  2  0
  9 10  1  0
  9 11  1  0
 11 12  2  0
 12 13  1  0
 13 14  1  0
 14 15  1  0
 15 16  2  0
 16 17  1  0
 17 18  2  0
 18 19  1  0
 19 20  1  0
 20 21  2  0
 21 22  1  0
 22 23  2  0
 23 24  1  0
 24 25  2  0
 25 26  2  0
 26 27  2  0
 27 28  1  0
 28 29  1  0
 29 30  1  0
 30 31  1  0
 31 32  2  0
 29 33  1  0
 33 34  1  0
 34 35  1  0
 35 36  2  0
 35 37  1  0
 37 38  2  0
 38 39  1  0
 39 40  2  0
 40 41  1  0
 41 42  2  0
 34 43  1  0
 43 44  2  3
 44 45  1  0
 45 46  2  3
 46 47  1  0
 47 48  2  3
 48 49  1  0
 49 50  2  0
 50 51  2  0
 51 52  1  0
 52 53  1  0
 53 54  2  0
 53 55  1  0
 45 56  1  0
 56 57  2  0
 18 58  1  0
 58 59  2  0
 13  3  1  0
 59 15  1  0
 12  5  1  0
 55 19  1  0
 57 20  1  0
 31 22  1  0
 42 37  1  0
 55 48  1  0
 56 23  1  0
 32 24  1  0
 51 49  1  0
 43 27  1  0
M  END
$$$$
