
     RDKit          2D

 73 80  0  0  0  0  0  0  0  0999 V2000
   18.8458   -1.8605    0.0000 C   0  0  0  0  0  0  0  0  0  0  0  0
   17.3629   -1.6345    0.0000 O   0  0  0  0  0  0  0  0  0  0  0  0
   16.4257   -2.8057    0.0000 C   0  0  0  0  0  0  0  0  0  0  0  0
   16.9714   -4.2029    0.0000 C   0  0  0  0  0  0  0  0  0  0  0  0
   16.0342   -5.3741    0.0000 C   0  0  0  0  0  0  0  0  0  0  0  0
   14.5514   -5.1481    0.0000 C   0  0  0  0  0  0  0  0  0  0  0  0
   13.6142   -6.3193    0.0000 O   0  0  0  0  0  0  0  0  0  0  0  0
   14.1599   -7.7165    0.0000 C   0  0  0  0  0  0  0  0  0  0  0  0
   15.6427   -7.9425    0.0000 O   0  0  0  0  0  0  0  0  0  0  0  0
   13.2227   -8.8877    0.0000 O   0  0  0  0  0  0  0  0  0  0  0  0
   14.0057   -3.7508    0.0000 C   0  0  0  0  0  0  0  0  0  0  0  0
   12.5228   -3.5248    0.0000 C   0  0  0  0  0  0  0  0  0  0  0  0
   11.9771   -2.1276    0.0000 O   0  0  0  0  0  0  0  0  0  0  0  0
   10.4942   -1.9016    0.0000 C   0  0  0  0  0  0  0  0  0  0  0  0
    9.9485   -0.5043    0.0000 C   0  0  0  0  0  0  0  0  0  0  0  0
    8.4657   -0.2783    0.0000 C   0  0  0  0  0  0  0  0  0  0  0  0
    7.9200    1.1189    0.0000 C   0  0  0  0  0  0  0  0  0  0  0  0
    8.8572    2.2901    0.0000 C   0  0  0  0  0  0  0  0  0  0  0  0
    8.3115    3.6873    0.0000 C   0  0  0  0  0  0  0  0  0  0  0  0
    9.2487    4.8585    0.0000 O   0  0  0  0  0  0  0  0  0  0  0  0
   10.7315    4.6325    0.0000 C   0  0  0  0  0  0  0  0  0  0  0  0
   11.6687    5.8037    0.0000 C   0  0  0  0  0  0  0  0  0  0  0  0
   13.1516    5.5776    0.0000 C   0  0  0  0  0  0  0  0  0  0  0  0
   14.0888    6.7488    0.0000 C   0  0  0  0  0  0  0  0  0  0  0  0
   13.5431    8.1460    0.0000 C   0  0  0  0  0  0  0  0  0  0  0  0
   14.4803    9.3172    0.0000 O   0  0  0  0  0  0  0  0  0  0  0  0
   12.0602    8.3721    0.0000 C   0  0  0  0  0  0  0  0  0  0  0  0
   11.1230    7.2009    0.0000 C   0  0  0  0  0  0  0  0  0  0  0  0
    6.8286    3.9133    0.0000 C   0  0  0  0  0  0  0  0  0  0  0  0
    6.2829    5.3106    0.0000 O   0  0  0  0  0  0  0  0  0  0  0  0
    5.8914    2.7421    0.0000 C   0  0  0  0  0  0  0  0  0  0  0  0
    6.4371    1.3449    0.0000 C   0  0  0  0  0  0  0  0  0  0  0  0
    5.4999    0.1737    0.0000 N   0  0  0  0  0  0  0  0  0  0  0  0
    5.8966   -1.2729    0.0000 C   0  0  0  0  0  0  0  0  0  0  0  0
    7.1302   -2.1261    0.0000 N   0  0  0  0  0  0  0  0  0  0  0  0
    4.6433   -2.0971    0.0000 N   0  0  0  0  0  0  0  0  0  0  0  0
    3.4722   -1.1599    0.0000 C   0  0  0  0  0  0  0  0  0  0  0  0
    2.0255   -1.5566    0.0000 C   0  0  0  0  0  0  0  0  0  0  0  0
    0.9587   -0.5021    0.0000 C   0  0  0  0  0  0  0  0  0  0  0  0
   -0.4879   -0.8988    0.0000 C   0  0  0  0  0  0  0  0  0  0  0  0
   -0.8677   -2.3499    0.0000 C   0  0  0  0  0  0  0  0  0  0  0  0
   -2.3143   -2.7466    0.0000 O   0  0  0  0  0  0  0  0  0  0  0  0
   -2.6941   -4.1977    0.0000 N   0  0  0  0  0  0  0  0  0  0  0  0
   -4.1407   -4.5943    0.0000 O   0  0  0  0  0  0  0  0  0  0  0  0
    0.1991   -3.4044    0.0000 C   0  0  0  0  0  0  0  0  0  0  0  0
    1.6458   -3.0077    0.0000 C   0  0  0  0  0  0  0  0  0  0  0  0
    4.0015    0.2435    0.0000 C   0  0  0  0  0  0  0  0  0  0  0  0
    3.1773    1.4968    0.0000 C   0  0  0  0  0  0  0  0  0  0  0  0
    4.1548    2.6345    0.0000 O   0  0  0  0  0  0  0  0  0  0  0  0
    1.6798    1.4095    0.0000 C   0  0  0  0  0  0  0  0  0  0  0  0
    2.0257    2.8691    0.0000 C   0  0  0  0  0  0  0  0  0  0  0  0
    3.4099    3.4472    0.0000 N   0  0  0  0  0  0  0  0  0  0  0  0
    3.2879    4.9422    0.0000 N   0  0  0  0  0  0  0  0  0  0  0  0
    1.8283    5.2881    0.0000 C   0  0  0  0  0  0  0  0  0  0  0  0
    1.0483    4.0069    0.0000 N   0  0  0  0  0  0  0  0  0  0  0  0
    2.1929    0.0000    0.0000 C   0  0  0  0  0  0  0  0  0  0  0  0
    1.6798   -1.4095    0.0000 C   0  0  0  0  0  0  0  0  0  0  0  0
    0.3808   -2.1595    0.0000 C   0  0  0  0  0  0  0  0  0  0  0  0
    0.2761   -3.6559    0.0000 O   0  0  0  0  0  0  0  0  0  0  0  0
   -1.0964   -1.8991    0.0000 C   0  0  0  0  0  0  0  0  0  0  0  0
   -2.0606   -0.7500    0.0000 C   0  0  0  0  0  0  0  0  0  0  0  0
   -2.0606    0.7500    0.0000 C   0  0  0  0  0  0  0  0  0  0  0  0
   -3.4701    1.2630    0.0000 N   0  0  0  0  0  0  0  0  0  0  0  0
   -1.0964    1.8991    0.0000 C   0  0  0  0  0  0  0  0  0  0  0  0
    0.3808    2.1595    0.0000 C   0  0  0  0  0  0  0  0  0  0  0  0
    7.5285   -1.4495    0.0000 C   0  0  0  0  0  0  0  0  0  0  0  0
    8.0742   -2.8467    0.0000 C   0  0  0  0  0  0  0  0  0  0  0  0
    9.5570   -3.0728    0.0000 C   0  0  0  0  0  0  0  0  0  0  0  0
   10.1027   -4.4700    0.0000 O   0  0  0  0  0  0  0  0  0  0  0  0
    9.1656   -5.6412    0.0000 C   0  0  0  0  0  0  0  0  0  0  0  0
    7.6827   -5.4151    0.0000 O   0  0  0  0  0  0  0  0  0  0  0  0
    9.7112   -7.0384    0.0000 O   0  0  0  0  0  0  0  0  0  0  0  0
   14.9428   -2.5797    0.0000 C   0  0  0  0  0  0  0  0  0  0  0  0
  1  2  1  0
  2  3  1  0
  3  4  2  0
  4  5  1  0
  5  6  2  0
  6  7  1  0
  7  8  1  0
  8  9  2  0
  8 10  1  0
  6 11  1  0
 11 12  1  0
 12 13  1  0
 13 14  1  0
 14 15  2  0
 15 16  1  0
 16 17  1  0
 17 18  2  0
 18 19  1  0
 19 20  1  0
 20 21  1  0
 21 22  1  0
 22 23  2  0
 23 24  1  0
 24 25  2  0
 25 26  1  0
 25 27  1  0
 27 28  2  0
 19 29  2  0
 29 30  1  0
 29 31  1  0
 31 32  2  0
 32 33  1  0
 33 34  1  0
 34 35  1  0
 34 36  2  0
 36 37  1  0
 37 38  1  0
 38 39  2  0
 39 40  1  0
 40 41  2  0
 41 42  1  0
 42 43  1  0
 43 44  2  0
 41 45  1  0
 45 46  2  0
 37 47  2  0
 47 48  1  0
 48 49  2  0
 48 50  1  0
 50 51  1  0
 51 52  2  0
 52 53  1  0
 53 54  2  0
 54 55  2  0
 50 56  1  0
 56 57  1  0
 57 58  1  0
 58 59  2  0
 58 60  1  0
 60 61  1  0
 61 62  1  0
 62 63  1  0
 62 64  1  0
 64 65  1  0
 16 66  2  0
 66 67  1  0
 67 68  2  0
 68 69  1  0
 69 70  1  0
 70 71  2  0
 70 72  1  0
 11 73  2  0
 73  3  1  0
 68 14  1  0
 32 17  1  0
 47 33  1  0
 65 50  1  0
 28 22  1  0
 46 38  1  0
 55 51  1  0
M  END
$$$$
