
     RDKit          2D

 20 21  0  0  0  0  0  0  0  0999 V2000
    7.3789   -3.6336    0.0000 O   0  0  0  0  0  0  0  0  0  0  0  0
    8.0499   -2.2920    0.0000 C   0  0  0  0  0  0  0  0  0  0  0  0
    9.5472   -2.2023    0.0000 O   0  0  0  0  0  0  0  0  0  0  0  0
    7.2236   -1.0402    0.0000 C   0  0  0  0  0  0  0  0  0  0  0  0
    5.7262   -1.1299    0.0000 C   0  0  0  0  0  0  0  0  0  0  0  0
    4.8999    0.1220    0.0000 C   0  0  0  0  0  0  0  0  0  0  0  0
    3.4026    0.0323    0.0000 C   0  0  0  0  0  0  0  0  0  0  0  0
    2.5762    1.2842    0.0000 N   0  0  0  0  0  0  0  0  0  0  0  0
    3.1033    2.6885    0.0000 C   0  0  0  0  0  0  0  0  0  0  0  0
    4.5492    3.0876    0.0000 O   0  0  0  0  0  0  0  0  0  0  0  0
    1.9306    3.6237    0.0000 N   0  0  0  0  0  0  0  0  0  0  0  0
    0.6787    2.7974    0.0000 C   0  0  0  0  0  0  0  0  0  0  0  0
   -0.7257    3.3245    0.0000 O   0  0  0  0  0  0  0  0  0  0  0  0
    1.0777    1.3515    0.0000 C   0  0  0  0  0  0  0  0  0  0  0  0
    1.7286    0.0000    0.0000 C   0  0  0  0  0  0  0  0  0  0  0  0
    1.0777   -1.3515    0.0000 C   0  0  0  0  0  0  0  0  0  0  0  0
   -0.3846   -1.6852    0.0000 C   0  0  0  0  0  0  0  0  0  0  0  0
   -1.5574   -0.7500    0.0000 C   0  0  0  0  0  0  0  0  0  0  0  0
   -1.5574    0.7500    0.0000 C   0  0  0  0  0  0  0  0  0  0  0  0
   -0.3846    1.6852    0.0000 O   0  0  0  0  0  0  0  0  0  0  0  0
  1  2  2  0
  2  3  1  0
  2  4  1  0
  4  5  1  0
  5  6  1  0
  6  7  1  0
  7  8  1  0
  8  9  1  0
  9 10  2  0
  9 11  1  0
 11 12  1  0
 12 13  2  0
 12 14  1  0
 14 15  1  0
 15 16  1  0
 16 17  1  0
 17 18  1  0
 18 19  1  0
 19 20  1  0
 14  8  1  0
 20 14  1  0
M  END
$$$$
