
     RDKit          2D

 30 33  0  0  0  0  0  0  0  0999 V2000
   10.8732    1.2499    0.0000 C   0  0  0  0  0  0  0  0  0  0  0  0
   10.6127    2.7271    0.0000 O   0  0  0  0  0  0  0  0  0  0  0  0
    9.2032    3.2402    0.0000 C   0  0  0  0  0  0  0  0  0  0  0  0
    8.0541    2.2760    0.0000 C   0  0  0  0  0  0  0  0  0  0  0  0
    6.6446    2.7890    0.0000 C   0  0  0  0  0  0  0  0  0  0  0  0
    6.3841    4.2662    0.0000 C   0  0  0  0  0  0  0  0  0  0  0  0
    4.9746    4.7793    0.0000 O   0  0  0  0  0  0  0  0  0  0  0  0
    3.8255    3.8151    0.0000 C   0  0  0  0  0  0  0  0  0  0  0  0
    2.3701    4.1780    0.0000 N   0  0  0  0  0  0  0  0  0  0  0  0
    1.5752    2.9059    0.0000 C   0  0  0  0  0  0  0  0  0  0  0  0
    2.9660    3.4678    0.0000 N   0  0  0  0  0  0  0  0  0  0  0  0
    3.9301    2.3187    0.0000 N   0  0  0  0  0  0  0  0  0  0  0  0
    3.1353    1.0467    0.0000 C   0  0  0  0  0  0  0  0  0  0  0  0
    3.6972   -0.3441    0.0000 O   0  0  0  0  0  0  0  0  0  0  0  0
    1.6798    1.4095    0.0000 C   0  0  0  0  0  0  0  0  0  0  0  0
    2.1929    0.0000    0.0000 C   0  0  0  0  0  0  0  0  0  0  0  0
    1.6798   -1.4095    0.0000 C   0  0  0  0  0  0  0  0  0  0  0  0
    0.3808   -2.1595    0.0000 C   0  0  0  0  0  0  0  0  0  0  0  0
   -1.0964   -1.8991    0.0000 C   0  0  0  0  0  0  0  0  0  0  0  0
   -2.0606   -0.7500    0.0000 C   0  0  0  0  0  0  0  0  0  0  0  0
   -2.0606    0.7500    0.0000 C   0  0  0  0  0  0  0  0  0  0  0  0
   -3.4701    1.2630    0.0000 O   0  0  0  0  0  0  0  0  0  0  0  0
   -1.0964    1.8991    0.0000 C   0  0  0  0  0  0  0  0  0  0  0  0
   -1.8464    3.1981    0.0000 C   0  0  0  0  0  0  0  0  0  0  0  0
   -1.0964    4.4971    0.0000 C   0  0  0  0  0  0  0  0  0  0  0  0
    0.4036    4.4971    0.0000 O   0  0  0  0  0  0  0  0  0  0  0  0
   -1.8464    5.7962    0.0000 O   0  0  0  0  0  0  0  0  0  0  0  0
    0.3808    2.1595    0.0000 C   0  0  0  0  0  0  0  0  0  0  0  0
    7.5332    5.2304    0.0000 C   0  0  0  0  0  0  0  0  0  0  0  0
    8.9427    4.7174    0.0000 C   0  0  0  0  0  0  0  0  0  0  0  0
  1  2  1  0
  2  3  1  0
  3  4  2  0
  4  5  1  0
  5  6  2  0
  6  7  1  0
  7  8  1  0
  8  9  2  0
  9 10  1  0
 10 11  2  0
 11 12  1  0
 12 13  1  0
 13 14  2  0
 13 15  1  0
 15 16  1  0
 16 17  1  0
 17 18  1  0
 18 19  1  0
 19 20  1  0
 20 21  1  0
 21 22  2  0
 21 23  1  0
 23 24  2  3
 24 25  1  0
 25 26  2  0
 25 27  1  0
 23 28  1  0
  6 29  1  0
 29 30  2  0
 30  3  1  0
 12  8  1  0
 28 15  1  0
 15 10  1  0
M  END
$$$$
