
     RDKit          2D

 50 55  0  0  0  0  0  0  0  0999 V2000
   -7.5604    3.4623    0.0000 C   0  0  0  0  0  0  0  0  0  0  0  0
   -7.1722    2.0134    0.0000 C   0  0  0  0  0  0  0  0  0  0  0  0
   -8.2328    0.9528    0.0000 C   0  0  0  0  0  0  0  0  0  0  0  0
   -7.8446   -0.4961    0.0000 C   0  0  0  0  0  0  0  0  0  0  0  0
   -8.9053   -1.5568    0.0000 C   0  0  0  0  0  0  0  0  0  0  0  0
   -8.5170   -3.0057    0.0000 N   0  0  0  0  0  0  0  0  0  0  0  0
   -9.5777   -4.0663    0.0000 C   0  0  0  0  0  0  0  0  0  0  0  0
  -11.0266   -3.6781    0.0000 O   0  0  0  0  0  0  0  0  0  0  0  0
   -9.1895   -5.5152    0.0000 C   0  0  0  0  0  0  0  0  0  0  0  0
   -7.7406   -5.9035    0.0000 C   0  0  0  0  0  0  0  0  0  0  0  0
   -7.6621   -7.4014    0.0000 S   0  0  0  0  0  0  0  0  0  0  0  0
   -9.0624   -7.9389    0.0000 C   0  0  0  0  0  0  0  0  0  0  0  0
   -9.4507   -9.3878    0.0000 C   0  0  0  0  0  0  0  0  0  0  0  0
  -10.8996   -9.7761    0.0000 C   0  0  0  0  0  0  0  0  0  0  0  0
  -10.0064   -6.7732    0.0000 C   0  0  0  0  0  0  0  0  0  0  0  0
   -6.6799   -4.8428    0.0000 N   0  0  0  0  0  0  0  0  0  0  0  0
   -5.2310   -5.2310    0.0000 C   0  0  0  0  0  0  0  0  0  0  0  0
   -4.1704   -4.1704    0.0000 C   0  0  0  0  0  0  0  0  0  0  0  0
   -4.5586   -2.7215    0.0000 C   0  0  0  0  0  0  0  0  0  0  0  0
   -3.4979   -1.6608    0.0000 C   0  0  0  0  0  0  0  0  0  0  0  0
   -2.0490   -2.0490    0.0000 C   0  0  0  0  0  0  0  0  0  0  0  0
   -2.7990   -3.3481    0.0000 C   0  0  0  0  0  0  0  0  0  0  0  0
   -2.7990   -4.8481    0.0000 C   0  0  0  0  0  0  0  0  0  0  0  0
   -2.0490   -6.1471    0.0000 C   0  0  0  0  0  0  0  0  0  0  0  0
   -0.7500   -6.8971    0.0000 N   0  0  0  0  0  0  0  0  0  0  0  0
   -1.1382   -8.3460    0.0000 C   0  0  0  0  0  0  0  0  0  0  0  0
   -2.5871   -8.7342    0.0000 C   0  0  0  0  0  0  0  0  0  0  0  0
   -2.9753  -10.1831    0.0000 C   0  0  0  0  0  0  0  0  0  0  0  0
   -3.6478   -7.6736    0.0000 C   0  0  0  0  0  0  0  0  0  0  0  0
    0.7500   -6.8971    0.0000 O   0  0  0  0  0  0  0  0  0  0  0  0
    2.0490   -6.1471    0.0000 C   0  0  0  0  0  0  0  0  0  0  0  0
    3.1097   -7.2078    0.0000 O   0  0  0  0  0  0  0  0  0  0  0  0
    2.7990   -4.8481    0.0000 O   0  0  0  0  0  0  0  0  0  0  0  0
    2.7990   -3.3481    0.0000 N   0  0  0  0  0  0  0  0  0  0  0  0
    4.2663   -3.0362    0.0000 N   0  0  0  0  0  0  0  0  0  0  0  0
    4.4231   -1.5444    0.0000 C   0  0  0  0  0  0  0  0  0  0  0  0
    5.7221   -0.7944    0.0000 C   0  0  0  0  0  0  0  0  0  0  0  0
    7.0211   -1.5444    0.0000 C   0  0  0  0  0  0  0  0  0  0  0  0
    3.0527   -0.9343    0.0000 N   0  0  0  0  0  0  0  0  0  0  0  0
    2.0490   -2.0490    0.0000 C   0  0  0  0  0  0  0  0  0  0  0  0
    0.7500   -1.2990    0.0000 C   0  0  0  0  0  0  0  0  0  0  0  0
    1.5000    0.0000    0.0000 C   0  0  0  0  0  0  0  0  0  0  0  0
    0.7500    1.2990    0.0000 C   0  0  0  0  0  0  0  0  0  0  0  0
   -0.7500    1.2990    0.0000 C   0  0  0  0  0  0  0  0  0  0  0  0
   -1.5000    0.0000    0.0000 C   0  0  0  0  0  0  0  0  0  0  0  0
   -0.7500   -1.2990    0.0000 C   0  0  0  0  0  0  0  0  0  0  0  0
   -7.0681   -3.3939    0.0000 C   0  0  0  0  0  0  0  0  0  0  0  0
   -6.0075   -2.3332    0.0000 O   0  0  0  0  0  0  0  0  0  0  0  0
   -9.6817    1.3410    0.0000 C   0  0  0  0  0  0  0  0  0  0  0  0
  -10.0699    2.7899    0.0000 C   0  0  0  0  0  0  0  0  0  0  0  0
  1  2  1  0
  2  3  1  0
  3  4  2  0
  4  5  1  0
  5  6  1  0
  6  7  1  0
  7  8  2  0
  7  9  1  0
  9 10  2  0
 10 11  1  0
 11 12  1  0
 12 13  1  0
 13 14  1  0
 12 15  2  0
 10 16  1  0
 16 17  1  0
 17 18  1  0
 18 19  2  0
 19 20  1  0
 20 21  2  0
 21 22  1  0
 22 23  2  0
 23 24  1  0
 24 25  1  0
 25 26  1  0
 26 27  1  0
 27 28  1  0
 27 29  1  0
 25 30  1  0
 30 31  1  0
 31 32  2  0
 31 33  1  0
 33 34  1  0
 34 35  1  0
 35 36  2  0
 36 37  1  0
 37 38  1  0
 36 39  1  0
 39 40  2  0
 40 41  1  0
 41 42  2  0
 42 43  1  0
 43 44  2  0
 44 45  1  0
 45 46  2  0
 16 47  1  0
 47 48  2  0
  3 49  1  0
 49 50  1  0
 47  6  1  0
 15  9  1  0
 23 18  1  0
 40 34  1  0
 46 41  1  0
 46 21  1  0
M  END
$$$$
