
     RDKit          2D

 29 33  0  0  0  0  0  0  0  0999 V2000
   -0.8405   -7.8175    0.0000 O   0  0  0  0  0  0  0  0  0  0  0  0
   -2.0799   -8.6625    0.0000 C   0  0  0  0  0  0  0  0  0  0  0  0
   -1.9678  -10.1583    0.0000 O   0  0  0  0  0  0  0  0  0  0  0  0
   -3.4313   -8.0117    0.0000 C   0  0  0  0  0  0  0  0  0  0  0  0
   -4.6707   -8.8567    0.0000 C   0  0  0  0  0  0  0  0  0  0  0  0
   -6.0221   -8.2058    0.0000 C   0  0  0  0  0  0  0  0  0  0  0  0
   -6.1342   -6.7100    0.0000 C   0  0  0  0  0  0  0  0  0  0  0  0
   -4.8949   -5.8651    0.0000 C   0  0  0  0  0  0  0  0  0  0  0  0
   -3.5434   -6.5159    0.0000 C   0  0  0  0  0  0  0  0  0  0  0  0
   -2.3040   -5.6709    0.0000 C   0  0  0  0  0  0  0  0  0  0  0  0
   -0.9526   -6.3217    0.0000 C   0  0  0  0  0  0  0  0  0  0  0  0
    0.2868   -5.4767    0.0000 C   0  0  0  0  0  0  0  0  0  0  0  0
    0.1747   -3.9809    0.0000 C   0  0  0  0  0  0  0  0  0  0  0  0
    1.4140   -3.1360    0.0000 C   0  0  0  0  0  0  0  0  0  0  0  0
   -0.3931   -0.6793    0.0000 N   0  0  0  0  0  0  0  0  0  0  0  0
    0.5824    0.1631    0.0000 C   0  0  0  0  0  0  0  0  0  0  0  0
    3.8927   -1.4460    0.0000 O   0  0  0  0  0  0  0  0  0  0  0  0
    0.1138    0.5115    0.0000 C   0  0  0  0  0  0  0  0  0  0  0  0
    1.0777    1.3515    0.0000 C   0  0  0  0  0  0  0  0  0  0  0  0
    1.7286    0.0000    0.0000 C   0  0  0  0  0  0  0  0  0  0  0  0
    1.0777   -1.3515    0.0000 C   0  0  0  0  0  0  0  0  0  0  0  0
   -0.3846   -1.6852    0.0000 C   0  0  0  0  0  0  0  0  0  0  0  0
   -1.5574   -0.7500    0.0000 C   0  0  0  0  0  0  0  0  0  0  0  0
   -1.5574    0.7500    0.0000 C   0  0  0  0  0  0  0  0  0  0  0  0
   -0.3846    1.6852    0.0000 C   0  0  0  0  0  0  0  0  0  0  0  0
   -0.0950   -1.0838    0.0000 C   0  0  0  0  0  0  0  0  0  0  0  0
    1.0777   -0.1485    0.0000 N   0  0  0  0  0  0  0  0  0  0  0  0
   -1.1768   -3.3301    0.0000 C   0  0  0  0  0  0  0  0  0  0  0  0
   -2.4161   -4.1751    0.0000 C   0  0  0  0  0  0  0  0  0  0  0  0
  1  2  2  0
  2  3  1  0
  2  4  1  0
  4  5  2  0
  5  6  1  0
  6  7  2  0
  7  8  1  0
  8  9  2  0
  9 10  1  0
 10 11  2  0
 11 12  1  0
 12 13  2  0
 13 14  1  0
 14 15  1  0
 15 16  1  0
 16 17  2  0
 16 18  1  0
 18 19  1  0
 19 20  1  0
 20 21  1  0
 21 22  1  0
 22 23  2  0
 23 24  1  0
 24 25  1  0
 23 26  1  0
 26 27  2  0
 13 28  1  0
 28 29  2  0
  9  4  1  0
 29 10  1  0
 26 15  1  0
 25 19  1  0
 27 19  1  0
M  END
$$$$
