
     RDKit          2D

109121  0  0  0  0  0  0  0  0999 V2000
    6.1458   15.0193    0.0000 C   0  0  0  0  0  0  0  0  0  0  0  0
    4.8659   14.2371    0.0000 C   0  0  0  0  0  0  0  0  0  0  0  0
    3.5486   14.9545    0.0000 C   0  0  0  0  0  0  0  0  0  0  0  0
    2.2686   14.1723    0.0000 O   0  0  0  0  0  0  0  0  0  0  0  0
    0.9513   14.8897    0.0000 C   0  0  0  0  0  0  0  0  0  0  0  0
    0.9139   16.3893    0.0000 O   0  0  0  0  0  0  0  0  0  0  0  0
   -0.3286   14.1076    0.0000 C   0  0  0  0  0  0  0  0  0  0  0  0
   -0.2913   12.6080    0.0000 O   0  0  0  0  0  0  0  0  0  0  0  0
   -1.5712   11.8259    0.0000 N   0  0  0  0  0  0  0  0  0  0  0  0
   -2.8885   12.5433    0.0000 N   0  0  0  0  0  0  0  0  0  0  0  0
   -2.9259   14.0428    0.0000 O   0  0  0  0  0  0  0  0  0  0  0  0
   -4.2432   14.7602    0.0000 C   0  0  0  0  0  0  0  0  0  0  0  0
   -5.5232   13.9780    0.0000 C   0  0  0  0  0  0  0  0  0  0  0  0
   -6.8405   14.6954    0.0000 C   0  0  0  0  0  0  0  0  0  0  0  0
   -6.8779   16.1949    0.0000 C   0  0  0  0  0  0  0  0  0  0  0  0
   -8.1952   16.9123    0.0000 C   0  0  0  0  0  0  0  0  0  0  0  0
   -9.4752   16.1302    0.0000 C   0  0  0  0  0  0  0  0  0  0  0  0
  -10.7925   16.8476    0.0000 C   0  0  0  0  0  0  0  0  0  0  0  0
  -10.8299   18.3471    0.0000 C   0  0  0  0  0  0  0  0  0  0  0  0
   -9.5500   19.1292    0.0000 C   0  0  0  0  0  0  0  0  0  0  0  0
   -8.2326   18.4119    0.0000 C   0  0  0  0  0  0  0  0  0  0  0  0
   -5.5980   16.9771    0.0000 C   0  0  0  0  0  0  0  0  0  0  0  0
   -4.2806   16.2597    0.0000 C   0  0  0  0  0  0  0  0  0  0  0  0
   -3.0007   17.0419    0.0000 O   0  0  0  0  0  0  0  0  0  0  0  0
   -3.0381   18.5414    0.0000 C   0  0  0  0  0  0  0  0  0  0  0  0
   -1.7582   19.3236    0.0000 C   0  0  0  0  0  0  0  0  0  0  0  0
   -1.7956   20.8231    0.0000 C   0  0  0  0  0  0  0  0  0  0  0  0
   -0.5156   21.6052    0.0000 C   0  0  0  0  0  0  0  0  0  0  0  0
    0.8017   20.8879    0.0000 C   0  0  0  0  0  0  0  0  0  0  0  0
    0.8391   19.3883    0.0000 C   0  0  0  0  0  0  0  0  0  0  0  0
   -0.4408   18.6062    0.0000 C   0  0  0  0  0  0  0  0  0  0  0  0
   -1.5338   10.3264    0.0000 O   0  0  0  0  0  0  0  0  0  0  0  0
   -0.2165    9.6090    0.0000 N   0  0  0  0  0  0  0  0  0  0  0  0
    1.0635   10.3911    0.0000 O   0  0  0  0  0  0  0  0  0  0  0  0
    1.0261   11.8907    0.0000 N   0  0  0  0  0  0  0  0  0  0  0  0
    2.0787   12.9593    0.0000 O   0  0  0  0  0  0  0  0  0  0  0  0
   -0.1791    8.1094    0.0000 C   0  0  0  0  0  0  0  0  0  0  0  0
    1.2912    8.4067    0.0000 O   0  0  0  0  0  0  0  0  0  0  0  0
    1.7689    9.8286    0.0000 N   0  0  0  0  0  0  0  0  0  0  0  0
    0.8994   11.0508    0.0000 C   0  0  0  0  0  0  0  0  0  0  0  0
   -0.4320   10.3599    0.0000 C   0  0  0  0  0  0  0  0  0  0  0  0
    0.0731   12.3027    0.0000 C   0  0  0  0  0  0  0  0  0  0  0  0
    1.7931   12.2555    0.0000 N   0  0  0  0  0  0  0  0  0  0  0  0
    3.2150   11.7778    0.0000 O   0  0  0  0  0  0  0  0  0  0  0  0
    3.2001   10.2778    0.0000 C   0  0  0  0  0  0  0  0  0  0  0  0
    4.6933   10.4197    0.0000 O   0  0  0  0  0  0  0  0  0  0  0  0
    3.4973    8.8076    0.0000 O   0  0  0  0  0  0  0  0  0  0  0  0
   -1.6623    8.3330    0.0000 C   0  0  0  0  0  0  0  0  0  0  0  0
   -2.5975    7.1603    0.0000 C   0  0  0  0  0  0  0  0  0  0  0  0
   -2.0495    5.7639    0.0000 C   0  0  0  0  0  0  0  0  0  0  0  0
   -2.9848    4.5912    0.0000 O   0  0  0  0  0  0  0  0  0  0  0  0
   -0.5663    5.5404    0.0000 N   0  0  0  0  0  0  0  0  0  0  0  0
   -0.0183    4.1441    0.0000 N   0  0  0  0  0  0  0  0  0  0  0  0
    1.4650    3.9205    0.0000 C   0  0  0  0  0  0  0  0  0  0  0  0
    2.0130    2.5242    0.0000 C   0  0  0  0  0  0  0  0  0  0  0  0
    3.4962    2.3006    0.0000 C   0  0  0  0  0  0  0  0  0  0  0  0
    4.0442    0.9043    0.0000 C   0  0  0  0  0  0  0  0  0  0  0  0
    3.1090   -0.2684    0.0000 C   0  0  0  0  0  0  0  0  0  0  0  0
    3.6570   -1.6647    0.0000 C   0  0  0  0  0  0  0  0  0  0  0  0
    5.1403   -1.8883    0.0000 C   0  0  0  0  0  0  0  0  0  0  0  0
    6.0755   -0.7155    0.0000 C   0  0  0  0  0  0  0  0  0  0  0  0
    5.5275    0.6808    0.0000 C   0  0  0  0  0  0  0  0  0  0  0  0
    6.4627    1.8535    0.0000 C   0  0  0  0  0  0  0  0  0  0  0  0
    7.9460    1.6299    0.0000 C   0  0  0  0  0  0  0  0  0  0  0  0
    8.8812    2.8027    0.0000 C   0  0  0  0  0  0  0  0  0  0  0  0
    8.3332    4.1990    0.0000 C   0  0  0  0  0  0  0  0  0  0  0  0
    6.8499    4.4226    0.0000 C   0  0  0  0  0  0  0  0  0  0  0  0
    5.9147    3.2498    0.0000 C   0  0  0  0  0  0  0  0  0  0  0  0
    4.4315    3.4734    0.0000 C   0  0  0  0  0  0  0  0  0  0  0  0
    3.8835    4.8697    0.0000 C   0  0  0  0  0  0  0  0  0  0  0  0
    2.4002    5.0933    0.0000 C   0  0  0  0  0  0  0  0  0  0  0  0
    1.5306    6.3155    0.0000 O   0  0  0  0  0  0  0  0  0  0  0  0
    1.4650    3.9205    0.0000 N   0  0  0  0  0  0  0  0  0  0  0  0
   -0.0183    4.1441    0.0000 C   0  0  0  0  0  0  0  0  0  0  0  0
   -0.5663    5.5404    0.0000 C   0  0  0  0  0  0  0  0  0  0  0  0
    0.3689    6.7131    0.0000 C   0  0  0  0  0  0  0  0  0  0  0  0
   -0.1791    8.1094    0.0000 C   0  0  0  0  0  0  0  0  0  0  0  0
   -1.6623    8.3330    0.0000 C   0  0  0  0  0  0  0  0  0  0  0  0
   -2.2103    9.7293    0.0000 C   0  0  0  0  0  0  0  0  0  0  0  0
   -1.2751   10.9021    0.0000 C   0  0  0  0  0  0  0  0  0  0  0  0
   -1.8231   12.2984    0.0000 C   0  0  0  0  0  0  0  0  0  0  0  0
   -3.3063   12.5219    0.0000 C   0  0  0  0  0  0  0  0  0  0  0  0
   -4.2416   11.3492    0.0000 C   0  0  0  0  0  0  0  0  0  0  0  0
   -3.6936    9.9529    0.0000 C   0  0  0  0  0  0  0  0  0  0  0  0
   -4.6288    8.7801    0.0000 C   0  0  0  0  0  0  0  0  0  0  0  0
   -4.2297    7.3342    0.0000 N   0  0  0  0  0  0  0  0  0  0  0  0
   -5.4816    6.5078    0.0000 N   0  0  0  0  0  0  0  0  0  0  0  0
   -6.6544    7.4431    0.0000 N   0  0  0  0  0  0  0  0  0  0  0  0
   -6.1273    8.8474    0.0000 N   0  0  0  0  0  0  0  0  0  0  0  0
   -2.5975    7.1603    0.0000 C   0  0  0  0  0  0  0  0  0  0  0  0
   -2.0495    5.7639    0.0000 C   0  0  0  0  0  0  0  0  0  0  0  0
    2.0130    2.5242    0.0000 C   0  0  0  0  0  0  0  0  0  0  0  0
    1.0777    1.3515    0.0000 C   0  0  0  0  0  0  0  0  0  0  0  0
    1.7286    0.0000    0.0000 N   0  0  0  0  0  0  0  0  0  0  0  0
    1.0777   -1.3515    0.0000 C   0  0  0  0  0  0  0  0  0  0  0  0
   -0.3846   -1.6852    0.0000 N   0  0  0  0  0  0  0  0  0  0  0  0
   -1.5574   -0.7500    0.0000 O   0  0  0  0  0  0  0  0  0  0  0  0
   -1.5574    0.7500    0.0000 C   0  0  0  0  0  0  0  0  0  0  0  0
   -2.9088    1.4008    0.0000 O   0  0  0  0  0  0  0  0  0  0  0  0
   -0.3846    1.6852    0.0000 C   0  0  0  0  0  0  0  0  0  0  0  0
   -0.7184    3.1476    0.0000 O   0  0  0  0  0  0  0  0  0  0  0  0
    3.4962    2.3006    0.0000 C   0  0  0  0  0  0  0  0  0  0  0  0
    3.6901    0.8132    0.0000 O   0  0  0  0  0  0  0  0  0  0  0  0
    4.4315    3.4734    0.0000 C   0  0  0  0  0  0  0  0  0  0  0  0
    3.8835    4.8697    0.0000 C   0  0  0  0  0  0  0  0  0  0  0  0
    2.4002    5.0933    0.0000 C   0  0  0  0  0  0  0  0  0  0  0  0
    1.8522    6.4896    0.0000 O   0  0  0  0  0  0  0  0  0  0  0  0
    2.7874    7.6623    0.0000 C   0  0  0  0  0  0  0  0  0  0  0  0
    0.3689    6.7131    0.0000 C   0  0  0  0  0  0  0  0  0  0  0  0
  1  2  1  0
  2  3  1  0
  3  4  1  0
  4  5  1  0
  5  6  1  0
  5  7  1  0
  7  8  1  0
  8  9  1  0
  9 10  1  0
 10 11  1  0
 11 12  1  0
 12 13  2  0
 13 14  1  0
 14 15  2  0
 15 16  1  0
 16 17  2  0
 17 18  1  0
 18 19  2  0
 19 20  1  0
 20 21  2  0
 15 22  1  0
 22 23  2  0
 23 24  1  0
 24 25  1  0
 25 26  1  0
 26 27  2  0
 27 28  1  0
 28 29  2  0
 29 30  1  0
 30 31  2  0
  9 32  1  0
 32 33  1  0
 33 34  1  0
 34 35  1  0
 35 36  2  0
 33 37  1  0
 37 38  1  0
 38 39  1  0
 39 40  1  0
 40 41  1  0
 40 42  1  0
 40 43  1  0
 43 44  1  0
 44 45  1  0
 45 46  1  0
 45 47  1  0
 37 48  1  0
 48 49  1  0
 49 50  1  0
 50 51  2  0
 50 52  1  0
 52 53  1  0
 53 54  1  0
 54 55  2  0
 55 56  1  0
 56 57  1  0
 57 58  2  0
 58 59  1  0
 59 60  2  0
 60 61  1  0
 61 62  2  0
 62 63  1  0
 63 64  2  0
 64 65  1  0
 65 66  2  0
 66 67  1  0
 67 68  2  0
 68 69  1  0
 69 70  2  0
 70 71  1  0
 71 72  2  0
 71 73  1  0
 73 74  1  0
 74 75  1  0
 75 76  2  0
 76 77  1  0
 77 78  2  0
 78 79  1  0
 79 80  2  0
 80 81  1  0
 81 82  2  0
 82 83  1  0
 83 84  2  0
 84 85  1  0
 85 86  2  0
 86 87  1  0
 87 88  2  0
 88 89  1  0
 78 90  1  0
 90 91  2  0
 73 92  1  0
 92 93  2  3
 93 94  1  0
 94 95  2  0
 95 96  2  0
 96 97  1  0
 97 98  1  0
 98 99  2  0
 98100  1  0
100101  2  0
 92102  1  0
102103  2  0
 56104  2  0
104105  1  0
105106  2  0
106107  1  0
107108  1  0
 52109  1  0
 23 12  1  0
 31 26  1  0
109 37  1  0
 21 16  1  0
 45 39  1  0
106 54  1  0
 62 57  1  0
 68 63  1  0
102 69  1  0
 91 75  1  0
100 93  1  0
 84 79  1  0
 89 85  1  0
M  END
$$$$
