
     RDKit          2D

 56 61  0  0  0  0  0  0  0  0999 V2000
    2.7760   -2.5981    0.0000 O   0  0  0  0  0  0  0  0  0  0  0  0
    3.5260   -1.2990    0.0000 C   0  0  0  0  0  0  0  0  0  0  0  0
    5.0260   -1.2990    0.0000 O   0  0  0  0  0  0  0  0  0  0  0  0
    2.7760   -0.0000    0.0000 O   0  0  0  0  0  0  0  0  0  0  0  0
    1.2760   -0.0000    0.0000 C   0  0  0  0  0  0  0  0  0  0  0  0
    0.3943    1.2135    0.0000 C   0  0  0  0  0  0  0  0  0  0  0  0
    0.8578    2.6401    0.0000 C   0  0  0  0  0  0  0  0  0  0  0  0
    2.3250    2.9520    0.0000 C   0  0  0  0  0  0  0  0  0  0  0  0
    2.6369    1.4848    0.0000 O   0  0  0  0  0  0  0  0  0  0  0  0
    4.0635    1.0212    0.0000 C   0  0  0  0  0  0  0  0  0  0  0  0
    4.9593    1.6484    0.0000 O   0  0  0  0  0  0  0  0  0  0  0  0
    4.3754   -0.4460    0.0000 C   0  0  0  0  0  0  0  0  0  0  0  0
    5.8019   -0.9095    0.0000 C   0  0  0  0  0  0  0  0  0  0  0  0
    6.1138   -2.3767    0.0000 C   0  0  0  0  0  0  0  0  0  0  0  0
    7.5404   -2.8403    0.0000 C   0  0  0  0  0  0  0  0  0  0  0  0
    7.8523   -4.3075    0.0000 C   0  0  0  0  0  0  0  0  0  0  0  0
    9.2789   -4.7710    0.0000 C   0  0  0  0  0  0  0  0  0  0  0  0
    9.5907   -6.2382    0.0000 C   0  0  0  0  0  0  0  0  0  0  0  0
   11.0173   -6.7018    0.0000 C   0  0  0  0  0  0  0  0  0  0  0  0
   12.1320   -5.6981    0.0000 C   0  0  0  0  0  0  0  0  0  0  0  0
   11.8202   -4.2308    0.0000 O   0  0  0  0  0  0  0  0  0  0  0  0
   13.5586   -6.1616    0.0000 N   0  0  0  0  0  0  0  0  0  0  0  0
   14.0221   -7.5882    0.0000 N   0  0  0  0  0  0  0  0  0  0  0  0
   15.5221   -7.5882    0.0000 C   0  0  0  0  0  0  0  0  0  0  0  0
   15.9857   -6.1616    0.0000 N   0  0  0  0  0  0  0  0  0  0  0  0
   17.4122   -5.6981    0.0000 C   0  0  0  0  0  0  0  0  0  0  0  0
   18.6258   -6.5797    0.0000 C   0  0  0  0  0  0  0  0  0  0  0  0
   19.8393   -5.6981    0.0000 N   0  0  0  0  0  0  0  0  0  0  0  0
   19.3758   -4.2715    0.0000 C   0  0  0  0  0  0  0  0  0  0  0  0
   17.8758   -4.2715    0.0000 N   0  0  0  0  0  0  0  0  0  0  0  0
   14.7721   -5.2799    0.0000 C   0  0  0  0  0  0  0  0  0  0  0  0
   14.7721   -3.7799    0.0000 O   0  0  0  0  0  0  0  0  0  0  0  0
   11.3292   -8.1690    0.0000 C   0  0  0  0  0  0  0  0  0  0  0  0
   10.3255   -9.2837    0.0000 C   0  0  0  0  0  0  0  0  0  0  0  0
   11.0755  -10.5827    0.0000 N   0  0  0  0  0  0  0  0  0  0  0  0
   12.5427  -10.2709    0.0000 C   0  0  0  0  0  0  0  0  0  0  0  0
   12.6995   -8.7791    0.0000 N   0  0  0  0  0  0  0  0  0  0  0  0
    3.7923    3.2638    0.0000 C   0  0  0  0  0  0  0  0  0  0  0  0
    4.6176    2.5465    0.0000 O   0  0  0  0  0  0  0  0  0  0  0  0
    4.2558    4.6904    0.0000 O   0  0  0  0  0  0  0  0  0  0  0  0
    5.7230    5.0023    0.0000 C   0  0  0  0  0  0  0  0  0  0  0  0
    6.8377    3.9986    0.0000 C   0  0  0  0  0  0  0  0  0  0  0  0
    8.1368    4.7486    0.0000 N   0  0  0  0  0  0  0  0  0  0  0  0
    7.8249    6.2158    0.0000 C   0  0  0  0  0  0  0  0  0  0  0  0
    6.3331    6.3726    0.0000 N   0  0  0  0  0  0  0  0  0  0  0  0
    2.0132    4.4192    0.0000 C   0  0  0  0  0  0  0  0  0  0  0  0
    0.5866    4.8827    0.0000 O   0  0  0  0  0  0  0  0  0  0  0  0
    3.1279    5.4229    0.0000 O   0  0  0  0  0  0  0  0  0  0  0  0
    2.8160    6.8901    0.0000 C   0  0  0  0  0  0  0  0  0  0  0  0
    1.4457    7.5002    0.0000 C   0  0  0  0  0  0  0  0  0  0  0  0
    1.6025    8.9920    0.0000 N   0  0  0  0  0  0  0  0  0  0  0  0
    3.0697    9.3039    0.0000 C   0  0  0  0  0  0  0  0  0  0  0  0
    3.8197    8.0048    0.0000 N   0  0  0  0  0  0  0  0  0  0  0  0
   -1.0323    0.7500    0.0000 N   0  0  0  0  0  0  0  0  0  0  0  0
   -1.0323   -0.7500    0.0000 C   0  0  0  0  0  0  0  0  0  0  0  0
    0.3943   -1.2135    0.0000 N   0  0  0  0  0  0  0  0  0  0  0  0
  1  2  2  0
  2  3  1  0
  2  4  1  0
  4  5  1  0
  5  6  2  0
  6  7  1  0
  7  8  1  0
  8  9  1  0
  9 10  1  0
 10 11  2  0
 10 12  1  0
 12 13  1  0
 13 14  1  0
 14 15  1  0
 15 16  1  0
 16 17  1  0
 17 18  1  0
 18 19  1  0
 19 20  1  0
 20 21  2  0
 20 22  1  0
 22 23  1  0
 23 24  2  0
 24 25  1  0
 25 26  1  0
 26 27  2  0
 27 28  1  0
 28 29  2  0
 29 30  1  0
 25 31  1  0
 31 32  2  0
 19 33  1  0
 33 34  2  0
 34 35  1  0
 35 36  2  0
 36 37  1  0
  8 38  1  0
 38 39  2  0
 38 40  1  0
 40 41  1  0
 41 42  2  0
 42 43  1  0
 43 44  2  0
 44 45  1  0
  8 46  1  0
 46 47  2  0
 46 48  1  0
 48 49  1  0
 49 50  2  0
 50 51  1  0
 51 52  2  0
 52 53  1  0
  6 54  1  0
 54 55  1  0
 55 56  2  0
 56  5  1  0
 31 22  1  0
 37 33  1  0
 45 41  1  0
 53 49  1  0
 30 26  1  0
M  END
$$$$
