
     RDKit          2D

 38 43  0  0  0  0  0  0  0  0999 V2000
    0.8503    7.5485    0.0000 C   0  0  0  0  0  0  0  0  0  0  0  0
    1.0460    6.0614    0.0000 C   0  0  0  0  0  0  0  0  0  0  0  0
   -0.1440    5.1482    0.0000 C   0  0  0  0  0  0  0  0  0  0  0  0
    0.0518    3.6611    0.0000 N   0  0  0  0  0  0  0  0  0  0  0  0
    1.4376    3.0870    0.0000 C   0  0  0  0  0  0  0  0  0  0  0  0
    1.6334    1.5999    0.0000 C   0  0  0  0  0  0  0  0  0  0  0  0
    3.0192    1.0259    0.0000 C   0  0  0  0  0  0  0  0  0  0  0  0
    4.2093    1.9390    0.0000 C   0  0  0  0  0  0  0  0  0  0  0  0
    5.5951    1.3650    0.0000 C   0  0  0  0  0  0  0  0  0  0  0  0
    5.7909   -0.1222    0.0000 N   0  0  0  0  0  0  0  0  0  0  0  0
    4.7028   -1.1547    0.0000 C   0  0  0  0  0  0  0  0  0  0  0  0
    3.2279   -0.8814    0.0000 C   0  0  0  0  0  0  0  0  0  0  0  0
    2.2538   -2.0220    0.0000 C   0  0  0  0  0  0  0  0  0  0  0  0
    5.3486   -2.5086    0.0000 N   0  0  0  0  0  0  0  0  0  0  0  0
    6.8357   -2.3128    0.0000 C   0  0  0  0  0  0  0  0  0  0  0  0
    7.9763   -3.2870    0.0000 C   0  0  0  0  0  0  0  0  0  0  0  0
    7.7030   -4.7619    0.0000 C   0  0  0  0  0  0  0  0  0  0  0  0
    9.3903   -2.7863    0.0000 C   0  0  0  0  0  0  0  0  0  0  0  0
    9.6637   -1.3114    0.0000 C   0  0  0  0  0  0  0  0  0  0  0  0
   11.0776   -0.8107    0.0000 C   0  0  0  0  0  0  0  0  0  0  0  0
    8.5231   -0.3372    0.0000 N   0  0  0  0  0  0  0  0  0  0  0  0
    7.1091   -0.8379    0.0000 C   0  0  0  0  0  0  0  0  0  0  0  0
    4.0135    3.4262    0.0000 C   0  0  0  0  0  0  0  0  0  0  0  0
    2.6277    4.0002    0.0000 C   0  0  0  0  0  0  0  0  0  0  0  0
   -1.1382    2.7479    0.0000 C   0  0  0  0  0  0  0  0  0  0  0  0
   -2.4373    3.4979    0.0000 C   0  0  0  0  0  0  0  0  0  0  0  0
   -2.2415    4.9851    0.0000 O   0  0  0  0  0  0  0  0  0  0  0  0
   -3.8862    3.1097    0.0000 N   0  0  0  0  0  0  0  0  0  0  0  0
   -4.6362    1.8107    0.0000 C   0  0  0  0  0  0  0  0  0  0  0  0
   -4.2479    0.3618    0.0000 N   0  0  0  0  0  0  0  0  0  0  0  0
   -2.9489   -0.3882    0.0000 C   0  0  0  0  0  0  0  0  0  0  0  0
   -3.1447   -1.8754    0.0000 O   0  0  0  0  0  0  0  0  0  0  0  0
   -1.5000    0.0000    0.0000 C   0  0  0  0  0  0  0  0  0  0  0  0
   -0.7500   -1.2990    0.0000 C   0  0  0  0  0  0  0  0  0  0  0  0
    0.7500   -1.2990    0.0000 C   0  0  0  0  0  0  0  0  0  0  0  0
    1.5000    0.0000    0.0000 C   0  0  0  0  0  0  0  0  0  0  0  0
    0.7500    1.2990    0.0000 C   0  0  0  0  0  0  0  0  0  0  0  0
   -0.7500    1.2990    0.0000 C   0  0  0  0  0  0  0  0  0  0  0  0
  1  2  2  0
  2  3  1  0
  3  4  1  0
  4  5  1  0
  5  6  2  0
  6  7  1  0
  7  8  2  0
  8  9  1  0
  9 10  1  0
 10 11  1  0
 11 12  1  0
 12 13  1  0
 11 14  2  0
 14 15  1  0
 15 16  2  0
 16 17  1  0
 16 18  1  0
 18 19  2  0
 19 20  1  0
 19 21  1  0
 21 22  2  0
  8 23  1  0
 23 24  2  0
  4 25  1  0
 25 26  1  0
 26 27  2  0
 26 28  1  0
 28 29  2  3
 29 30  1  0
 30 31  1  0
 31 32  2  0
 31 33  1  0
 33 34  2  0
 34 35  1  0
 35 36  2  0
 36 37  1  0
 37 38  2  0
 24  5  1  0
 38 25  1  0
 22 10  1  0
 35 30  1  0
 22 15  1  0
 38 33  1  0
M  END
$$$$
