
     RDKit          2D

 79 88  0  0  0  0  0  0  0  0999 V2000
   -8.1886   -1.2990    0.0000 C   0  0  0  0  0  0  0  0  0  0  0  0
   -7.4386   -0.0000    0.0000 C   0  0  0  0  0  0  0  0  0  0  0  0
   -5.9386   -0.0000    0.0000 C   0  0  0  0  0  0  0  0  0  0  0  0
   -5.0569    1.2135    0.0000 C   0  0  0  0  0  0  0  0  0  0  0  0
   -3.6304    0.7500    0.0000 C   0  0  0  0  0  0  0  0  0  0  0  0
   -3.6304   -0.7500    0.0000 C   0  0  0  0  0  0  0  0  0  0  0  0
   -5.0569   -1.2135    0.0000 S   0  0  0  0  0  0  0  0  0  0  0  0
   -2.3313   -1.5000    0.0000 N   0  0  0  0  0  0  0  0  0  0  0  0
   -2.3313   -3.0000    0.0000 C   0  0  0  0  0  0  0  0  0  0  0  0
   -3.6304   -3.7500    0.0000 C   0  0  0  0  0  0  0  0  0  0  0  0
   -4.9294   -3.0000    0.0000 C   0  0  0  0  0  0  0  0  0  0  0  0
   -6.2284   -3.7500    0.0000 C   0  0  0  0  0  0  0  0  0  0  0  0
   -6.2284   -5.2500    0.0000 C   0  0  0  0  0  0  0  0  0  0  0  0
   -7.5275   -6.0000    0.0000 C   0  0  0  0  0  0  0  0  0  0  0  0
   -7.5275   -7.5000    0.0000 C   0  0  0  0  0  0  0  0  0  0  0  0
   -8.8265   -8.2500    0.0000 C   0  0  0  0  0  0  0  0  0  0  0  0
  -10.1256   -7.5000    0.0000 C   0  0  0  0  0  0  0  0  0  0  0  0
  -10.1256   -6.0000    0.0000 C   0  0  0  0  0  0  0  0  0  0  0  0
   -8.8265   -5.2500    0.0000 C   0  0  0  0  0  0  0  0  0  0  0  0
   -8.8265   -3.7500    0.0000 C   0  0  0  0  0  0  0  0  0  0  0  0
  -10.1780   -3.0992    0.0000 N   0  0  0  0  0  0  0  0  0  0  0  0
  -10.5117   -1.6368    0.0000 C   0  0  0  0  0  0  0  0  0  0  0  0
  -11.9741   -1.3030    0.0000 O   0  0  0  0  0  0  0  0  0  0  0  0
   -9.5765   -0.4640    0.0000 N   0  0  0  0  0  0  0  0  0  0  0  0
   -8.0765   -0.4640    0.0000 N   0  0  0  0  0  0  0  0  0  0  0  0
   -7.1413   -1.6368    0.0000 C   0  0  0  0  0  0  0  0  0  0  0  0
   -7.4751   -3.0992    0.0000 N   0  0  0  0  0  0  0  0  0  0  0  0
   -4.9294   -6.0000    0.0000 C   0  0  0  0  0  0  0  0  0  0  0  0
   -3.6304   -5.2500    0.0000 C   0  0  0  0  0  0  0  0  0  0  0  0
   -2.3313   -6.0000    0.0000 C   0  0  0  0  0  0  0  0  0  0  0  0
   -0.8894   -5.5866    0.0000 O   0  0  0  0  0  0  0  0  0  0  0  0
   -2.3313   -7.5000    0.0000 N   0  0  0  0  0  0  0  0  0  0  0  0
   -3.6304   -8.2500    0.0000 O   0  0  0  0  0  0  0  0  0  0  0  0
   -3.6304   -9.7500    0.0000 C   0  0  0  0  0  0  0  0  0  0  0  0
   -2.3313  -10.5000    0.0000 C   0  0  0  0  0  0  0  0  0  0  0  0
   -2.3313  -12.0000    0.0000 C   0  0  0  0  0  0  0  0  0  0  0  0
   -3.6304  -12.7500    0.0000 C   0  0  0  0  0  0  0  0  0  0  0  0
   -3.6304  -14.2500    0.0000 C   0  0  0  0  0  0  0  0  0  0  0  0
   -2.3313  -15.0000    0.0000 C   0  0  0  0  0  0  0  0  0  0  0  0
   -2.3313  -16.5000    0.0000 N   0  0  0  0  0  0  0  0  0  0  0  0
   -1.0323  -14.2500    0.0000 C   0  0  0  0  0  0  0  0  0  0  0  0
   -1.0323  -12.7500    0.0000 C   0  0  0  0  0  0  0  0  0  0  0  0
    0.2668  -12.0000    0.0000 N   0  0  0  0  0  0  0  0  0  0  0  0
    1.5658  -12.7500    0.0000 C   0  0  0  0  0  0  0  0  0  0  0  0
    2.8648  -12.0000    0.0000 C   0  0  0  0  0  0  0  0  0  0  0  0
    1.5658  -14.2500    0.0000 C   0  0  0  0  0  0  0  0  0  0  0  0
    2.8648  -15.0000    0.0000 C   0  0  0  0  0  0  0  0  0  0  0  0
    2.8648  -16.5000    0.0000 C   0  0  0  0  0  0  0  0  0  0  0  0
    4.1639  -14.2500    0.0000 C   0  0  0  0  0  0  0  0  0  0  0  0
   -1.0323   -9.7500    0.0000 N   0  0  0  0  0  0  0  0  0  0  0  0
   -1.0323   -8.2500    0.0000 O   0  0  0  0  0  0  0  0  0  0  0  0
   -1.0323   -0.7500    0.0000 C   0  0  0  0  0  0  0  0  0  0  0  0
    0.0467   -1.7920    0.0000 O   0  0  0  0  0  0  0  0  0  0  0  0
   -1.0323    0.7500    0.0000 N   0  0  0  0  0  0  0  0  0  0  0  0
    0.2668    1.5000    0.0000 C   0  0  0  0  0  0  0  0  0  0  0  0
    0.2668    3.0000    0.0000 C   0  0  0  0  0  0  0  0  0  0  0  0
    1.5658    3.7500    0.0000 C   0  0  0  0  0  0  0  0  0  0  0  0
    1.5658    5.2500    0.0000 C   0  0  0  0  0  0  0  0  0  0  0  0
    0.2668    6.0000    0.0000 C   0  0  0  0  0  0  0  0  0  0  0  0
    0.2668    7.5000    0.0000 C   0  0  0  0  0  0  0  0  0  0  0  0
    1.5658    8.2500    0.0000 C   0  0  0  0  0  0  0  0  0  0  0  0
    2.8648    7.5000    0.0000 C   0  0  0  0  0  0  0  0  0  0  0  0
    2.8648    6.0000    0.0000 C   0  0  0  0  0  0  0  0  0  0  0  0
    2.8648    3.0000    0.0000 C   0  0  0  0  0  0  0  0  0  0  0  0
    2.8648    1.5000    0.0000 C   0  0  0  0  0  0  0  0  0  0  0  0
    1.5658    0.7500    0.0000 C   0  0  0  0  0  0  0  0  0  0  0  0
    1.5658   -0.7500    0.0000 N   0  0  0  0  0  0  0  0  0  0  0  0
    2.8648   -1.5000    0.0000 N   0  0  0  0  0  0  0  0  0  0  0  0
    0.2668   -1.5000    0.0000 N   0  0  0  0  0  0  0  0  0  0  0  0
    0.2668   -3.0000    0.0000 C   0  0  0  0  0  0  0  0  0  0  0  0
    1.5658   -3.7500    0.0000 C   0  0  0  0  0  0  0  0  0  0  0  0
    1.5658   -5.2500    0.0000 C   0  0  0  0  0  0  0  0  0  0  0  0
    0.2668   -6.0000    0.0000 C   0  0  0  0  0  0  0  0  0  0  0  0
    0.2668   -7.5000    0.0000 N   0  0  0  0  0  0  0  0  0  0  0  0
   -1.0323   -5.2500    0.0000 C   0  0  0  0  0  0  0  0  0  0  0  0
   -1.0323   -3.7500    0.0000 C   0  0  0  0  0  0  0  0  0  0  0  0
   -2.4742   -3.3366    0.0000 N   0  0  0  0  0  0  0  0  0  0  0  0
   -2.3313    1.5000    0.0000 C   0  0  0  0  0  0  0  0  0  0  0  0
   -2.3313    3.0000    0.0000 O   0  0  0  0  0  0  0  0  0  0  0  0
  1  2  1  0
  2  3  1  0
  3  4  2  0
  4  5  1  0
  5  6  2  0
  6  7  1  0
  6  8  1  0
  8  9  1  0
  9 10  1  0
 10 11  2  0
 11 12  1  0
 12 13  2  0
 13 14  1  0
 14 15  2  0
 15 16  1  0
 16 17  2  0
 17 18  1  0
 18 19  2  0
 19 20  1  0
 20 21  2  0
 21 22  1  0
 22 23  2  0
 22 24  1  0
 24 25  1  0
 25 26  2  0
 26 27  2  0
 13 28  1  0
 28 29  2  0
 29 30  1  0
 30 31  2  0
 30 32  1  0
 32 33  1  0
 33 34  1  0
 34 35  1  0
 35 36  1  0
 36 37  2  0
 37 38  1  0
 38 39  2  0
 39 40  1  0
 39 41  1  0
 41 42  2  0
 42 43  1  0
 43 44  2  3
 44 45  1  0
 44 46  1  0
 46 47  2  0
 47 48  1  0
 47 49  1  0
 35 50  2  0
 50 51  1  0
  8 52  1  0
 52 53  2  0
 52 54  1  0
 54 55  1  0
 55 56  2  0
 56 57  1  0
 57 58  1  0
 58 59  2  0
 59 60  1  0
 60 61  2  0
 61 62  1  0
 62 63  2  0
 57 64  2  0
 64 65  1  0
 65 66  2  0
 66 67  1  0
 67 68  1  0
 67 69  1  0
 69 70  1  0
 70 71  2  0
 71 72  1  0
 72 73  2  0
 73 74  1  0
 73 75  1  0
 75 76  2  0
 76 77  1  0
 54 78  1  0
 78 79  2  0
  7  3  1  0
 29 10  1  0
 51 32  1  0
 66 55  1  0
 76 70  1  0
 78  5  1  0
 19 14  1  0
 27 20  1  0
 42 36  1  0
 63 58  1  0
M  END
$$$$
