
     RDKit          2D

 29 32  0  0  0  0  0  0  0  0999 V2000
    5.5132   -1.5385    0.0000 O   0  0  0  0  0  0  0  0  0  0  0  0
    6.5922   -2.5805    0.0000 C   0  0  0  0  0  0  0  0  0  0  0  0
    6.2293   -4.0359    0.0000 O   0  0  0  0  0  0  0  0  0  0  0  0
    8.0341   -2.1670    0.0000 O   0  0  0  0  0  0  0  0  0  0  0  0
    8.3970   -0.7116    0.0000 C   0  0  0  0  0  0  0  0  0  0  0  0
    7.3180    0.3304    0.0000 C   0  0  0  0  0  0  0  0  0  0  0  0
    7.6809    1.7859    0.0000 C   0  0  0  0  0  0  0  0  0  0  0  0
    6.6019    2.8279    0.0000 C   0  0  0  0  0  0  0  0  0  0  0  0
    5.1600    2.4144    0.0000 N   0  0  0  0  0  0  0  0  0  0  0  0
    4.6469    1.0049    0.0000 N   0  0  0  0  0  0  0  0  0  0  0  0
    3.0894    0.8965    0.0000 C   0  0  0  0  0  0  0  0  0  0  0  0
    4.2384    1.8607    0.0000 N   0  0  0  0  0  0  0  0  0  0  0  0
    3.9780    3.3379    0.0000 C   0  0  0  0  0  0  0  0  0  0  0  0
    2.5684    3.8509    0.0000 O   0  0  0  0  0  0  0  0  0  0  0  0
    1.4194    2.8868    0.0000 C   0  0  0  0  0  0  0  0  0  0  0  0
    0.0098    3.3998    0.0000 O   0  0  0  0  0  0  0  0  0  0  0  0
    1.6798    1.4095    0.0000 C   0  0  0  0  0  0  0  0  0  0  0  0
    2.1929    0.0000    0.0000 C   0  0  0  0  0  0  0  0  0  0  0  0
    1.6798   -1.4095    0.0000 C   0  0  0  0  0  0  0  0  0  0  0  0
    0.3808   -2.1595    0.0000 C   0  0  0  0  0  0  0  0  0  0  0  0
   -1.0964   -1.8991    0.0000 C   0  0  0  0  0  0  0  0  0  0  0  0
   -2.0606   -0.7500    0.0000 C   0  0  0  0  0  0  0  0  0  0  0  0
   -2.0606    0.7500    0.0000 C   0  0  0  0  0  0  0  0  0  0  0  0
   -1.0964    1.8991    0.0000 C   0  0  0  0  0  0  0  0  0  0  0  0
    0.3808    2.1595    0.0000 C   0  0  0  0  0  0  0  0  0  0  0  0
    9.1228    2.1993    0.0000 C   0  0  0  0  0  0  0  0  0  0  0  0
   10.2018    1.1573    0.0000 C   0  0  0  0  0  0  0  0  0  0  0  0
    9.8389   -0.2981    0.0000 C   0  0  0  0  0  0  0  0  0  0  0  0
   10.9179   -1.3401    0.0000 O   0  0  0  0  0  0  0  0  0  0  0  0
  1  2  2  0
  2  3  1  0
  2  4  1  0
  4  5  1  0
  5  6  2  0
  6  7  1  0
  7  8  1  0
  8  9  1  0
  9 10  1  0
 10 11  2  0
 11 12  1  0
 12 13  2  0
 13 14  1  0
 14 15  1  0
 15 16  2  0
 15 17  1  0
 17 18  1  0
 18 19  1  0
 19 20  1  0
 20 21  1  0
 21 22  1  0
 22 23  1  0
 23 24  1  0
 24 25  1  0
  7 26  2  0
 26 27  1  0
 27 28  2  0
 28 29  1  0
 28  5  1  0
 13  9  1  0
 25 17  1  0
 17 11  1  0
M  END
$$$$
