
     RDKit          2D

 45 48  0  0  0  0  0  0  0  0999 V2000
   -4.7961  -18.7707    0.0000 C   0  0  0  0  0  0  0  0  0  0  0  0
   -3.3695  -19.2342    0.0000 C   0  0  0  0  0  0  0  0  0  0  0  0
   -2.2548  -18.2305    0.0000 C   0  0  0  0  0  0  0  0  0  0  0  0
   -0.8282  -18.6940    0.0000 C   0  0  0  0  0  0  0  0  0  0  0  0
    0.2865  -17.6903    0.0000 C   0  0  0  0  0  0  0  0  0  0  0  0
    1.7537  -18.0022    0.0000 N   0  0  0  0  0  0  0  0  0  0  0  0
    2.5037  -16.7032    0.0000 C   0  0  0  0  0  0  0  0  0  0  0  0
    3.9955  -16.5464    0.0000 O   0  0  0  0  0  0  0  0  0  0  0  0
    1.5000  -15.5885    0.0000 C   0  0  0  0  0  0  0  0  0  0  0  0
    0.7500  -14.2894    0.0000 C   0  0  0  0  0  0  0  0  0  0  0  0
    1.5000  -12.9904    0.0000 C   0  0  0  0  0  0  0  0  0  0  0  0
    0.7500  -11.6913    0.0000 C   0  0  0  0  0  0  0  0  0  0  0  0
    1.5000  -10.3923    0.0000 C   0  0  0  0  0  0  0  0  0  0  0  0
    0.7500   -9.0933    0.0000 C   0  0  0  0  0  0  0  0  0  0  0  0
    1.5000   -7.7942    0.0000 C   0  0  0  0  0  0  0  0  0  0  0  0
    0.7500   -6.4952    0.0000 C   0  0  0  0  0  0  0  0  0  0  0  0
   -0.7500   -6.4952    0.0000 O   0  0  0  0  0  0  0  0  0  0  0  0
    1.5000   -5.1962    0.0000 N   0  0  0  0  0  0  0  0  0  0  0  0
    0.7500   -3.8971    0.0000 C   0  0  0  0  0  0  0  0  0  0  0  0
    1.5000   -2.5981    0.0000 C   0  0  0  0  0  0  0  0  0  0  0  0
    0.7500   -1.2990    0.0000 C   0  0  0  0  0  0  0  0  0  0  0  0
    1.5000    0.0000    0.0000 C   0  0  0  0  0  0  0  0  0  0  0  0
    0.7500    1.2990    0.0000 C   0  0  0  0  0  0  0  0  0  0  0  0
   -0.7500    1.2990    0.0000 C   0  0  0  0  0  0  0  0  0  0  0  0
   -1.5000    2.5981    0.0000 O   0  0  0  0  0  0  0  0  0  0  0  0
   -1.5000    0.0000    0.0000 C   0  0  0  0  0  0  0  0  0  0  0  0
   -0.7500   -1.2990    0.0000 C   0  0  0  0  0  0  0  0  0  0  0  0
    2.7135  -14.7068    0.0000 C   0  0  0  0  0  0  0  0  0  0  0  0
    4.0838  -15.3169    0.0000 N   0  0  0  0  0  0  0  0  0  0  0  0
    5.2974  -14.4352    0.0000 C   0  0  0  0  0  0  0  0  0  0  0  0
    6.6677  -15.0453    0.0000 O   0  0  0  0  0  0  0  0  0  0  0  0
    5.1406  -12.9434    0.0000 O   0  0  0  0  0  0  0  0  0  0  0  0
    6.3541  -12.0617    0.0000 N   0  0  0  0  0  0  0  0  0  0  0  0
    6.1973  -10.5700    0.0000 C   0  0  0  0  0  0  0  0  0  0  0  0
    7.4108   -9.6883    0.0000 C   0  0  0  0  0  0  0  0  0  0  0  0
    7.2540   -8.1965    0.0000 C   0  0  0  0  0  0  0  0  0  0  0  0
    5.8837   -7.5864    0.0000 C   0  0  0  0  0  0  0  0  0  0  0  0
    4.6702   -8.4681    0.0000 C   0  0  0  0  0  0  0  0  0  0  0  0
    4.8270   -9.9599    0.0000 C   0  0  0  0  0  0  0  0  0  0  0  0
    7.7244  -12.6719    0.0000 C   0  0  0  0  0  0  0  0  0  0  0  0
    9.0235  -11.9219    0.0000 N   0  0  0  0  0  0  0  0  0  0  0  0
   10.1382  -12.9255    0.0000 N   0  0  0  0  0  0  0  0  0  0  0  0
    9.5281  -14.2959    0.0000 N   0  0  0  0  0  0  0  0  0  0  0  0
    8.0363  -14.1391    0.0000 N   0  0  0  0  0  0  0  0  0  0  0  0
    0.1297  -16.1986    0.0000 N   0  0  0  0  0  0  0  0  0  0  0  0
  1  2  1  0
  2  3  1  0
  3  4  1  0
  4  5  1  0
  5  6  2  0
  6  7  1  0
  7  8  2  0
  7  9  1  0
  9 10  1  0
 10 11  1  0
 11 12  1  0
 12 13  1  0
 13 14  1  0
 14 15  1  0
 15 16  1  0
 16 17  2  0
 16 18  1  0
 18 19  1  0
 19 20  1  0
 20 21  1  0
 21 22  2  0
 22 23  1  0
 23 24  2  0
 24 25  1  0
 24 26  1  0
 26 27  2  0
  9 28  1  0
 28 29  1  0
 29 30  1  0
 30 31  2  0
 30 32  1  0
 32 33  1  0
 33 34  1  0
 34 35  2  0
 35 36  1  0
 36 37  2  0
 37 38  1  0
 38 39  2  0
 33 40  1  0
 40 41  2  0
 41 42  1  0
 42 43  2  0
 43 44  1  0
  9 45  1  0
 45  5  1  0
 27 21  1  0
 39 34  1  0
 44 40  1  0
M  END
$$$$
