
     RDKit          2D

 43 48  0  0  0  0  0  0  0  0999 V2000
    7.3165   -1.9091    0.0000 C   0  0  0  0  0  0  0  0  0  0  0  0
    6.0174   -1.1591    0.0000 C   0  0  0  0  0  0  0  0  0  0  0  0
    4.7184   -1.9091    0.0000 C   0  0  0  0  0  0  0  0  0  0  0  0
    4.7184   -3.4091    0.0000 C   0  0  0  0  0  0  0  0  0  0  0  0
    3.5875   -4.4504    0.0000 C   0  0  0  0  0  0  0  0  0  0  0  0
    3.1240   -3.0239    0.0000 N   0  0  0  0  0  0  0  0  0  0  0  0
    2.1203   -1.9091    0.0000 C   0  0  0  0  0  0  0  0  0  0  0  0
    3.4194   -1.1591    0.0000 N   0  0  0  0  0  0  0  0  0  0  0  0
    0.7500   -1.2990    0.0000 C   0  0  0  0  0  0  0  0  0  0  0  0
    1.5000    0.0000    0.0000 C   0  0  0  0  0  0  0  0  0  0  0  0
    0.7500    1.2990    0.0000 C   0  0  0  0  0  0  0  0  0  0  0  0
   -0.7500    1.2990    0.0000 C   0  0  0  0  0  0  0  0  0  0  0  0
   -1.5000    0.0000    0.0000 C   0  0  0  0  0  0  0  0  0  0  0  0
   -0.7500   -1.2990    0.0000 C   0  0  0  0  0  0  0  0  0  0  0  0
   -2.1203   -1.9091    0.0000 C   0  0  0  0  0  0  0  0  0  0  0  0
   -3.1240   -3.0239    0.0000 C   0  0  0  0  0  0  0  0  0  0  0  0
   -3.5875   -4.4504    0.0000 C   0  0  0  0  0  0  0  0  0  0  0  0
   -3.4307   -5.9422    0.0000 C   0  0  0  0  0  0  0  0  0  0  0  0
   -2.6807   -7.2413    0.0000 C   0  0  0  0  0  0  0  0  0  0  0  0
   -1.4672   -8.1229    0.0000 N   0  0  0  0  0  0  0  0  0  0  0  0
    0.0000   -8.4348    0.0000 C   0  0  0  0  0  0  0  0  0  0  0  0
   -0.2646   -9.4958    0.0000 O   0  0  0  0  0  0  0  0  0  0  0  0
    1.4672   -8.1229    0.0000 N   0  0  0  0  0  0  0  0  0  0  0  0
    2.6807   -7.2413    0.0000 C   0  0  0  0  0  0  0  0  0  0  0  0
    3.4307   -5.9422    0.0000 C   0  0  0  0  0  0  0  0  0  0  0  0
    4.8573   -6.4058    0.0000 C   0  0  0  0  0  0  0  0  0  0  0  0
    5.1692   -7.8730    0.0000 C   0  0  0  0  0  0  0  0  0  0  0  0
    6.5958   -8.3365    0.0000 C   0  0  0  0  0  0  0  0  0  0  0  0
    6.1323   -9.7631    0.0000 C   0  0  0  0  0  0  0  0  0  0  0  0
    7.0593   -6.9099    0.0000 C   0  0  0  0  0  0  0  0  0  0  0  0
    8.0224   -8.8000    0.0000 C   0  0  0  0  0  0  0  0  0  0  0  0
    1.1309   -9.6229    0.0000 C   0  0  0  0  0  0  0  0  0  0  0  0
    2.4299  -10.3729    0.0000 O   0  0  0  0  0  0  0  0  0  0  0  0
   -0.1682  -10.3729    0.0000 C   0  0  0  0  0  0  0  0  0  0  0  0
   -1.4672   -9.6229    0.0000 C   0  0  0  0  0  0  0  0  0  0  0  0
   -2.5819  -10.6266    0.0000 S   0  0  0  0  0  0  0  0  0  0  0  0
   -1.9718  -11.9970    0.0000 C   0  0  0  0  0  0  0  0  0  0  0  0
   -2.7218  -13.2960    0.0000 C   0  0  0  0  0  0  0  0  0  0  0  0
   -4.2218  -13.2960    0.0000 C   0  0  0  0  0  0  0  0  0  0  0  0
   -0.4801  -11.8402    0.0000 C   0  0  0  0  0  0  0  0  0  0  0  0
   -2.4271   -4.8275    0.0000 C   0  0  0  0  0  0  0  0  0  0  0  0
   -1.1280   -5.5775    0.0000 C   0  0  0  0  0  0  0  0  0  0  0  0
   -1.9635   -3.4009    0.0000 C   0  0  0  0  0  0  0  0  0  0  0  0
  1  2  1  0
  2  3  1  0
  3  4  1  0
  4  5  2  0
  5  6  1  0
  6  7  2  0
  7  8  1  0
  7  9  1  0
  9 10  2  0
 10 11  1  0
 11 12  2  0
 12 13  1  0
 13 14  2  0
 14 15  1  0
 15 16  2  0
 16 17  1  0
 17 18  2  0
 18 19  1  0
 19 20  1  0
 20 21  1  0
 21 22  2  0
 21 23  1  0
 23 24  1  0
 24 25  1  0
 25 26  2  3
 26 27  1  0
 27 28  1  0
 28 29  1  0
 28 30  1  0
 28 31  1  0
 23 32  1  0
 32 33  2  0
 32 34  1  0
 34 35  2  0
 35 36  1  0
 36 37  1  0
 37 38  1  0
 38 39  1  0
 37 40  2  0
 18 41  1  0
 41 42  1  0
 41 43  2  0
  8  3  2  0
 14  9  1  0
 43 15  1  0
 25  5  1  0
 40 34  1  0
 35 20  1  0
M  END
$$$$
