
     RDKit          2D

 83 86  0  0  0  0  0  0  0  0999 V2000
   -1.8681  -26.6065    0.0000 C   0  0  0  0  0  0  0  0  0  0  0  0
   -0.6546  -25.7248    0.0000 C   0  0  0  0  0  0  0  0  0  0  0  0
   -0.8113  -24.2330    0.0000 C   0  0  0  0  0  0  0  0  0  0  0  0
    0.4022  -23.3514    0.0000 C   0  0  0  0  0  0  0  0  0  0  0  0
    0.2454  -21.8596    0.0000 C   0  0  0  0  0  0  0  0  0  0  0  0
    1.3601  -20.8559    0.0000 N   0  0  0  0  0  0  0  0  0  0  0  0
    0.7500  -19.4856    0.0000 N   0  0  0  0  0  0  0  0  0  0  0  0
    1.5000  -18.1865    0.0000 C   0  0  0  0  0  0  0  0  0  0  0  0
    0.7500  -16.8875    0.0000 C   0  0  0  0  0  0  0  0  0  0  0  0
    1.5000  -15.5885    0.0000 C   0  0  0  0  0  0  0  0  0  0  0  0
    0.7500  -14.2894    0.0000 C   0  0  0  0  0  0  0  0  0  0  0  0
    1.5000  -12.9904    0.0000 C   0  0  0  0  0  0  0  0  0  0  0  0
    0.7500  -11.6913    0.0000 C   0  0  0  0  0  0  0  0  0  0  0  0
    1.5000  -10.3923    0.0000 C   0  0  0  0  0  0  0  0  0  0  0  0
    0.7500   -9.0933    0.0000 C   0  0  0  0  0  0  0  0  0  0  0  0
    1.5000   -7.7942    0.0000 C   0  0  0  0  0  0  0  0  0  0  0  0
    0.7500   -6.4952    0.0000 C   0  0  0  0  0  0  0  0  0  0  0  0
    1.5000   -5.1962    0.0000 C   0  0  0  0  0  0  0  0  0  0  0  0
    3.0000   -5.1962    0.0000 O   0  0  0  0  0  0  0  0  0  0  0  0
    0.7500   -3.8971    0.0000 O   0  0  0  0  0  0  0  0  0  0  0  0
    1.5000   -2.5981    0.0000 C   0  0  0  0  0  0  0  0  0  0  0  0
    0.7500   -1.2990    0.0000 C   0  0  0  0  0  0  0  0  0  0  0  0
    1.5000    0.0000    0.0000 C   0  0  0  0  0  0  0  0  0  0  0  0
    0.7500    1.2990    0.0000 C   0  0  0  0  0  0  0  0  0  0  0  0
   -0.7500    1.2990    0.0000 C   0  0  0  0  0  0  0  0  0  0  0  0
   -1.5000    0.0000    0.0000 C   0  0  0  0  0  0  0  0  0  0  0  0
   -3.0000    0.0000    0.0000 O   0  0  0  0  0  0  0  0  0  0  0  0
   -3.7500    1.2990    0.0000 O   0  0  0  0  0  0  0  0  0  0  0  0
   -5.2500    1.2990    0.0000 O   0  0  0  0  0  0  0  0  0  0  0  0
   -6.0000    2.5981    0.0000 O   0  0  0  0  0  0  0  0  0  0  0  0
   -7.5000    2.5981    0.0000 O   0  0  0  0  0  0  0  0  0  0  0  0
   -8.2500    3.8971    0.0000 O   0  0  0  0  0  0  0  0  0  0  0  0
   -9.7500    3.8971    0.0000 O   0  0  0  0  0  0  0  0  0  0  0  0
  -10.5000    5.1962    0.0000 O   0  0  0  0  0  0  0  0  0  0  0  0
  -12.0000    5.1962    0.0000 O   0  0  0  0  0  0  0  0  0  0  0  0
  -12.7500    6.4952    0.0000 O   0  0  0  0  0  0  0  0  0  0  0  0
  -14.2500    6.4952    0.0000 O   0  0  0  0  0  0  0  0  0  0  0  0
  -15.0000    7.7942    0.0000 O   0  0  0  0  0  0  0  0  0  0  0  0
  -16.5000    7.7942    0.0000 O   0  0  0  0  0  0  0  0  0  0  0  0
  -17.2500    9.0933    0.0000 O   0  0  0  0  0  0  0  0  0  0  0  0
  -18.7500    9.0933    0.0000 O   0  0  0  0  0  0  0  0  0  0  0  0
  -19.5000   10.3923    0.0000 O   0  0  0  0  0  0  0  0  0  0  0  0
  -21.0000   10.3923    0.0000 O   0  0  0  0  0  0  0  0  0  0  0  0
  -21.7500   11.6913    0.0000 O   0  0  0  0  0  0  0  0  0  0  0  0
  -23.2500   11.6913    0.0000 O   0  0  0  0  0  0  0  0  0  0  0  0
  -24.0000   12.9904    0.0000 O   0  0  0  0  0  0  0  0  0  0  0  0
  -25.5000   12.9904    0.0000 O   0  0  0  0  0  0  0  0  0  0  0  0
  -26.2500   14.2894    0.0000 O   0  0  0  0  0  0  0  0  0  0  0  0
  -27.7500   14.2894    0.0000 O   0  0  0  0  0  0  0  0  0  0  0  0
  -28.5000   15.5885    0.0000 O   0  0  0  0  0  0  0  0  0  0  0  0
  -30.0000   15.5885    0.0000 O   0  0  0  0  0  0  0  0  0  0  0  0
  -30.7500   16.8875    0.0000 O   0  0  0  0  0  0  0  0  0  0  0  0
  -32.2500   16.8875    0.0000 O   0  0  0  0  0  0  0  0  0  0  0  0
  -33.0000   18.1865    0.0000 O   0  0  0  0  0  0  0  0  0  0  0  0
  -34.5000   18.1865    0.0000 O   0  0  0  0  0  0  0  0  0  0  0  0
  -35.2500   19.4856    0.0000 O   0  0  0  0  0  0  0  0  0  0  0  0
  -36.7500   19.4856    0.0000 O   0  0  0  0  0  0  0  0  0  0  0  0
  -37.5000   20.7846    0.0000 O   0  0  0  0  0  0  0  0  0  0  0  0
  -39.0000   20.7846    0.0000 O   0  0  0  0  0  0  0  0  0  0  0  0
  -39.7500   22.0836    0.0000 O   0  0  0  0  0  0  0  0  0  0  0  0
  -41.2500   22.0836    0.0000 O   0  0  0  0  0  0  0  0  0  0  0  0
  -42.0000   23.3827    0.0000 O   0  0  0  0  0  0  0  0  0  0  0  0
  -43.5000   23.3827    0.0000 O   0  0  0  0  0  0  0  0  0  0  0  0
  -44.2500   24.6817    0.0000 O   0  0  0  0  0  0  0  0  0  0  0  0
  -45.7500   24.6817    0.0000 O   0  0  0  0  0  0  0  0  0  0  0  0
  -46.5000   25.9808    0.0000 O   0  0  0  0  0  0  0  0  0  0  0  0
   -0.7500   -1.2990    0.0000 C   0  0  0  0  0  0  0  0  0  0  0  0
   -0.7418  -19.6424    0.0000 C   0  0  0  0  0  0  0  0  0  0  0  0
   -1.7455  -18.5276    0.0000 O   0  0  0  0  0  0  0  0  0  0  0  0
   -1.0537  -21.1096    0.0000 N   0  0  0  0  0  0  0  0  0  0  0  0
   -2.4240  -21.7197    0.0000 C   0  0  0  0  0  0  0  0  0  0  0  0
   -3.6375  -20.8380    0.0000 C   0  0  0  0  0  0  0  0  0  0  0  0
   -3.4807  -19.3462    0.0000 C   0  0  0  0  0  0  0  0  0  0  0  0
   -4.6942  -18.4646    0.0000 C   0  0  0  0  0  0  0  0  0  0  0  0
   -6.0645  -19.0747    0.0000 C   0  0  0  0  0  0  0  0  0  0  0  0
   -7.2781  -18.1930    0.0000 C   0  0  0  0  0  0  0  0  0  0  0  0
   -7.1213  -16.7012    0.0000 C   0  0  0  0  0  0  0  0  0  0  0  0
   -8.3348  -15.8195    0.0000 C   0  0  0  0  0  0  0  0  0  0  0  0
   -9.7051  -16.4296    0.0000 C   0  0  0  0  0  0  0  0  0  0  0  0
   -9.8619  -17.9214    0.0000 C   0  0  0  0  0  0  0  0  0  0  0  0
   -8.6484  -18.8031    0.0000 C   0  0  0  0  0  0  0  0  0  0  0  0
   -6.2213  -20.5664    0.0000 C   0  0  0  0  0  0  0  0  0  0  0  0
   -5.0078  -21.4481    0.0000 C   0  0  0  0  0  0  0  0  0  0  0  0
  1  2  1  0
  2  3  1  0
  3  4  1  0
  4  5  1  0
  5  6  2  0
  6  7  1  0
  7  8  1  0
  8  9  1  0
  9 10  1  0
 10 11  1  0
 11 12  1  0
 12 13  1  0
 13 14  1  0
 14 15  1  0
 15 16  1  0
 16 17  1  0
 17 18  1  0
 18 19  2  0
 18 20  1  0
 20 21  1  0
 21 22  1  0
 22 23  2  0
 23 24  1  0
 24 25  2  0
 25 26  1  0
 26 27  1  0
 27 28  1  0
 28 29  1  0
 29 30  1  0
 30 31  1  0
 31 32  1  0
 32 33  1  0
 33 34  1  0
 34 35  1  0
 35 36  1  0
 36 37  1  0
 37 38  1  0
 38 39  1  0
 39 40  1  0
 40 41  1  0
 41 42  1  0
 42 43  1  0
 43 44  1  0
 44 45  1  0
 45 46  1  0
 46 47  1  0
 47 48  1  0
 48 49  1  0
 49 50  1  0
 50 51  1  0
 51 52  1  0
 52 53  1  0
 53 54  1  0
 54 55  1  0
 55 56  1  0
 56 57  1  0
 57 58  1  0
 58 59  1  0
 59 60  1  0
 60 61  1  0
 61 62  1  0
 62 63  1  0
 63 64  1  0
 64 65  1  0
 65 66  1  0
 26 67  2  0
  7 68  1  0
 68 69  2  0
 68 70  1  0
 70 71  1  0
 71 72  1  0
 72 73  2  0
 73 74  1  0
 74 75  2  0
 75 76  1  0
 76 77  2  0
 77 78  1  0
 78 79  2  0
 79 80  1  0
 80 81  2  0
 75 82  1  0
 82 83  2  0
 70  5  1  0
 83 72  1  0
 67 22  1  0
 81 76  1  0
M  END
$$$$
