
     RDKit          2D

 38 42  0  0  0  0  0  0  0  0999 V2000
    7.1443    5.2817    0.0000 C   0  0  0  0  0  0  0  0  0  0  0  0
    6.3943    3.9826    0.0000 C   0  0  0  0  0  0  0  0  0  0  0  0
    4.8943    3.9826    0.0000 C   0  0  0  0  0  0  0  0  0  0  0  0
    4.1443    2.6836    0.0000 C   0  0  0  0  0  0  0  0  0  0  0  0
    2.6443    2.6836    0.0000 C   0  0  0  0  0  0  0  0  0  0  0  0
    1.8943    3.9826    0.0000 C   0  0  0  0  0  0  0  0  0  0  0  0
    2.6443    5.2817    0.0000 C   0  0  0  0  0  0  0  0  0  0  0  0
    1.3453    6.0317    0.0000 C   0  0  0  0  0  0  0  0  0  0  0  0
    3.9433    4.5317    0.0000 C   0  0  0  0  0  0  0  0  0  0  0  0
    3.3943    6.5807    0.0000 C   0  0  0  0  0  0  0  0  0  0  0  0
    1.8943    1.3846    0.0000 C   0  0  0  0  0  0  0  0  0  0  0  0
    0.3943    1.2135    0.0000 C   0  0  0  0  0  0  0  0  0  0  0  0
    1.2760    0.0000    0.0000 C   0  0  0  0  0  0  0  0  0  0  0  0
    0.3943   -1.2135    0.0000 C   0  0  0  0  0  0  0  0  0  0  0  0
   -1.0323   -0.7500    0.0000 N   0  0  0  0  0  0  0  0  0  0  0  0
   -1.0323    0.7500    0.0000 C   0  0  0  0  0  0  0  0  0  0  0  0
   -2.2458    1.6317    0.0000 O   0  0  0  0  0  0  0  0  0  0  0  0
    1.8943   -1.2135    0.0000 C   0  0  0  0  0  0  0  0  0  0  0  0
    2.6443   -2.5126    0.0000 O   0  0  0  0  0  0  0  0  0  0  0  0
    2.6443    0.0855    0.0000 N   0  0  0  0  0  0  0  0  0  0  0  0
    4.1443    0.0855    0.0000 C   0  0  0  0  0  0  0  0  0  0  0  0
    4.8943   -1.2135    0.0000 C   0  0  0  0  0  0  0  0  0  0  0  0
    4.1443   -2.5126    0.0000 C   0  0  0  0  0  0  0  0  0  0  0  0
    4.8943   -3.8116    0.0000 C   0  0  0  0  0  0  0  0  0  0  0  0
    6.3943   -3.8116    0.0000 C   0  0  0  0  0  0  0  0  0  0  0  0
    7.1443   -5.1106    0.0000 C   0  0  0  0  0  0  0  0  0  0  0  0
    6.3943   -6.4097    0.0000 C   0  0  0  0  0  0  0  0  0  0  0  0
    7.1443   -7.7087    0.0000 C   0  0  0  0  0  0  0  0  0  0  0  0
    8.6443   -7.7087    0.0000 C   0  0  0  0  0  0  0  0  0  0  0  0
    9.3943   -6.4097    0.0000 C   0  0  0  0  0  0  0  0  0  0  0  0
    8.6443   -5.1106    0.0000 C   0  0  0  0  0  0  0  0  0  0  0  0
    9.3943   -3.8116    0.0000 C   0  0  0  0  0  0  0  0  0  0  0  0
    8.7842   -2.4413    0.0000 N   0  0  0  0  0  0  0  0  0  0  0  0
    9.8989   -1.4376    0.0000 N   0  0  0  0  0  0  0  0  0  0  0  0
   11.1979   -2.1876    0.0000 N   0  0  0  0  0  0  0  0  0  0  0  0
   10.8861   -3.6548    0.0000 N   0  0  0  0  0  0  0  0  0  0  0  0
    7.1443   -2.5126    0.0000 C   0  0  0  0  0  0  0  0  0  0  0  0
    6.3943   -1.2135    0.0000 C   0  0  0  0  0  0  0  0  0  0  0  0
  1  2  1  0
  2  3  1  0
  3  4  1  0
  4  5  1  0
  5  6  1  0
  6  7  1  0
  7  8  1  0
  7  9  1  0
  7 10  1  0
  5 11  2  3
 11 12  1  0
 12 13  2  0
 13 14  2  0
 14 15  1  0
 15 16  1  0
 16 17  2  0
 14 18  1  0
 18 19  2  0
 18 20  1  0
 20 21  1  0
 21 22  1  0
 22 23  2  0
 23 24  1  0
 24 25  2  0
 25 26  1  0
 26 27  2  0
 27 28  1  0
 28 29  2  0
 29 30  1  0
 30 31  2  0
 31 32  1  0
 32 33  2  0
 33 34  1  0
 34 35  2  0
 35 36  1  0
 25 37  1  0
 37 38  2  0
 20 11  1  0
 38 22  1  0
 16 12  1  0
 31 26  1  0
 36 32  1  0
M  END
$$$$
