
     RDKit          2D

 38 43  0  0  0  0  0  0  0  0999 V2000
    1.5865    6.3827    0.0000 C   0  0  0  0  0  0  0  0  0  0  0  0
    0.3429    5.5440    0.0000 C   0  0  0  0  0  0  0  0  0  0  0  0
    0.4473    4.0477    0.0000 C   0  0  0  0  0  0  0  0  0  0  0  0
   -0.7963    3.2090    0.0000 N   0  0  0  0  0  0  0  0  0  0  0  0
   -2.1444    3.8667    0.0000 C   0  0  0  0  0  0  0  0  0  0  0  0
   -2.2489    5.3631    0.0000 C   0  0  0  0  0  0  0  0  0  0  0  0
   -3.5970    6.0208    0.0000 C   0  0  0  0  0  0  0  0  0  0  0  0
   -4.8407    5.1821    0.0000 C   0  0  0  0  0  0  0  0  0  0  0  0
   -6.1888    5.8399    0.0000 C   0  0  0  0  0  0  0  0  0  0  0  0
   -6.2932    7.3362    0.0000 N   0  0  0  0  0  0  0  0  0  0  0  0
   -5.1441    8.3003    0.0000 C   0  0  0  0  0  0  0  0  0  0  0  0
   -3.6887    7.9372    0.0000 C   0  0  0  0  0  0  0  0  0  0  0  0
   -2.6465    9.0161    0.0000 C   0  0  0  0  0  0  0  0  0  0  0  0
   -5.7058    9.6911    0.0000 N   0  0  0  0  0  0  0  0  0  0  0  0
   -7.2022    9.5866    0.0000 C   0  0  0  0  0  0  0  0  0  0  0  0
   -8.2811   10.6288    0.0000 C   0  0  0  0  0  0  0  0  0  0  0  0
   -7.9180   12.0842    0.0000 C   0  0  0  0  0  0  0  0  0  0  0  0
   -9.7230   10.2155    0.0000 C   0  0  0  0  0  0  0  0  0  0  0  0
  -10.0861    8.7601    0.0000 C   0  0  0  0  0  0  0  0  0  0  0  0
  -11.5280    8.3468    0.0000 C   0  0  0  0  0  0  0  0  0  0  0  0
   -9.0072    7.7179    0.0000 N   0  0  0  0  0  0  0  0  0  0  0  0
   -7.5652    8.1312    0.0000 C   0  0  0  0  0  0  0  0  0  0  0  0
   -4.7362    3.6858    0.0000 C   0  0  0  0  0  0  0  0  0  0  0  0
   -3.3881    3.0281    0.0000 C   0  0  0  0  0  0  0  0  0  0  0  0
    0.0526   -0.0410    0.0000 C   0  0  0  0  0  0  0  0  0  0  0  0
    0.0662   -0.0444    0.0000 C   0  0  0  0  0  0  0  0  0  0  0  0
   -3.1041    2.1818    0.0000 O   0  0  0  0  0  0  0  0  0  0  0  0
   -0.6246   -1.3887    0.0000 N   0  0  0  0  0  0  0  0  0  0  0  0
   -0.5787   -1.4563    0.0000 C   0  0  0  0  0  0  0  0  0  0  0  0
   -1.2135   -2.7256    0.0000 N   0  0  0  0  0  0  0  0  0  0  0  0
   -0.0000   -3.6073    0.0000 C   0  0  0  0  0  0  0  0  0  0  0  0
    1.2135   -2.7256    0.0000 C   0  0  0  0  0  0  0  0  0  0  0  0
    0.7500   -1.2990    0.0000 C   0  0  0  0  0  0  0  0  0  0  0  0
    1.5000    0.0000    0.0000 C   0  0  0  0  0  0  0  0  0  0  0  0
    0.7500    1.2990    0.0000 C   0  0  0  0  0  0  0  0  0  0  0  0
   -0.7500    1.2990    0.0000 C   0  0  0  0  0  0  0  0  0  0  0  0
   -1.5000    0.0000    0.0000 C   0  0  0  0  0  0  0  0  0  0  0  0
   -0.7500   -1.2990    0.0000 C   0  0  0  0  0  0  0  0  0  0  0  0
  1  2  2  0
  2  3  1  0
  3  4  1  0
  4  5  1  0
  5  6  2  0
  6  7  1  0
  7  8  2  0
  8  9  1  0
  9 10  1  0
 10 11  1  0
 11 12  1  0
 12 13  1  0
 11 14  2  0
 14 15  1  0
 15 16  2  0
 16 17  1  0
 16 18  1  0
 18 19  2  0
 19 20  1  0
 19 21  1  0
 21 22  2  0
  8 23  1  0
 23 24  2  0
  4 25  1  0
 25 26  1  0
 26 27  2  0
 26 28  1  0
 28 29  2  3
 29 30  1  0
 30 31  1  0
 31 32  1  0
 32 33  1  0
 33 34  2  0
 34 35  1  0
 35 36  2  0
 36 37  1  0
 37 38  2  0
 24  5  1  0
 35 25  1  0
 22 10  1  0
 38 30  1  0
 22 15  1  0
 38 33  1  0
M  END
$$$$
