
     RDKit          2D

 39 41  0  0  0  0  0  0  0  0999 V2000
    7.6339   -2.5981    0.0000 C   0  0  0  0  0  0  0  0  0  0  0  0
    6.8839   -1.2990    0.0000 C   0  0  0  0  0  0  0  0  0  0  0  0
    5.3839   -1.2990    0.0000 C   0  0  0  0  0  0  0  0  0  0  0  0
    4.6339    0.0000    0.0000 C   0  0  0  0  0  0  0  0  0  0  0  0
    3.1339    0.0000    0.0000 C   0  0  0  0  0  0  0  0  0  0  0  0
    2.7750    1.4564    0.0000 N   0  0  0  0  0  0  0  0  0  0  0  0
    1.7803    2.5792    0.0000 C   0  0  0  0  0  0  0  0  0  0  0  0
    2.6324    3.8137    0.0000 O   0  0  0  0  0  0  0  0  0  0  0  0
    0.3778    3.1111    0.0000 C   0  0  0  0  0  0  0  0  0  0  0  0
   -1.1113    2.9303    0.0000 C   0  0  0  0  0  0  0  0  0  0  0  0
   -2.3458    2.0782    0.0000 C   0  0  0  0  0  0  0  0  0  0  0  0
   -3.0429    0.7500    0.0000 C   0  0  0  0  0  0  0  0  0  0  0  0
   -3.0429   -0.7500    0.0000 C   0  0  0  0  0  0  0  0  0  0  0  0
   -2.3458   -2.0782    0.0000 C   0  0  0  0  0  0  0  0  0  0  0  0
   -1.1113   -2.9303    0.0000 C   0  0  0  0  0  0  0  0  0  0  0  0
   -2.3458   -3.7824    0.0000 N   0  0  0  0  0  0  0  0  0  0  0  0
   -3.7010   -3.1393    0.0000 C   0  0  0  0  0  0  0  0  0  0  0  0
   -4.9354   -3.9914    0.0000 C   0  0  0  0  0  0  0  0  0  0  0  0
   -3.8217   -1.6442    0.0000 O   0  0  0  0  0  0  0  0  0  0  0  0
   -0.7523   -4.3867    0.0000 C   0  0  0  0  0  0  0  0  0  0  0  0
   -1.8341   -5.4258    0.0000 O   0  0  0  0  0  0  0  0  0  0  0  0
    0.6884   -4.8040    0.0000 N   0  0  0  0  0  0  0  0  0  0  0  0
    1.0474   -6.2604    0.0000 C   0  0  0  0  0  0  0  0  0  0  0  0
    2.4882   -6.6778    0.0000 C   0  0  0  0  0  0  0  0  0  0  0  0
    3.5700   -5.6387    0.0000 C   0  0  0  0  0  0  0  0  0  0  0  0
    5.0108   -6.0560    0.0000 C   0  0  0  0  0  0  0  0  0  0  0  0
    5.3697   -7.5124    0.0000 C   0  0  0  0  0  0  0  0  0  0  0  0
    4.2879   -8.5515    0.0000 C   0  0  0  0  0  0  0  0  0  0  0  0
    2.8472   -8.1342    0.0000 C   0  0  0  0  0  0  0  0  0  0  0  0
    1.7654   -9.1733    0.0000 C   0  0  0  0  0  0  0  0  0  0  0  0
    2.1243  -10.6297    0.0000 C   0  0  0  0  0  0  0  0  0  0  0  0
    1.0425  -11.6688    0.0000 C   0  0  0  0  0  0  0  0  0  0  0  0
   -0.3982  -11.2514    0.0000 C   0  0  0  0  0  0  0  0  0  0  0  0
   -0.7572   -9.7950    0.0000 C   0  0  0  0  0  0  0  0  0  0  0  0
    0.3246   -8.7559    0.0000 C   0  0  0  0  0  0  0  0  0  0  0  0
    0.3778   -3.1111    0.0000 C   0  0  0  0  0  0  0  0  0  0  0  0
    1.7803   -2.5792    0.0000 C   0  0  0  0  0  0  0  0  0  0  0  0
    2.6324   -3.8137    0.0000 O   0  0  0  0  0  0  0  0  0  0  0  0
    2.7750   -1.4564    0.0000 N   0  0  0  0  0  0  0  0  0  0  0  0
  1  2  1  0
  2  3  1  0
  3  4  1  0
  4  5  1  0
  5  6  2  3
  6  7  1  0
  7  8  2  0
  7  9  1  0
  9 10  1  0
 10 11  1  0
 11 12  1  0
 12 13  1  0
 13 14  1  0
 14 15  1  0
 15 16  1  0
 16 17  1  0
 17 18  1  0
 17 19  2  0
 15 20  1  0
 20 21  2  0
 20 22  1  0
 22 23  2  3
 23 24  1  0
 24 25  2  0
 25 26  1  0
 26 27  2  0
 27 28  1  0
 28 29  2  0
 29 30  1  0
 30 31  2  0
 31 32  1  0
 32 33  2  0
 33 34  1  0
 34 35  2  0
 15 36  1  0
 36 37  1  0
 37 38  2  0
 37 39  1  0
 39  5  1  0
 29 24  1  0
 35 30  1  0
M  END
$$$$
