
     RDKit          2D

 42 49  0  0  0  0  0  0  0  0999 V2000
   -9.9468    3.7681    0.0000 C   0  0  0  0  0  0  0  0  0  0  0  0
   -9.2960    2.4167    0.0000 C   0  0  0  0  0  0  0  0  0  0  0  0
  -10.1410    1.1773    0.0000 C   0  0  0  0  0  0  0  0  0  0  0  0
  -11.6403    1.1324    0.0000 N   0  0  0  0  0  0  0  0  0  0  0  0
  -12.0610   -0.3074    0.0000 C   0  0  0  0  0  0  0  0  0  0  0  0
  -13.4124   -0.9582    0.0000 C   0  0  0  0  0  0  0  0  0  0  0  0
  -14.6518   -0.1132    0.0000 C   0  0  0  0  0  0  0  0  0  0  0  0
  -13.5245   -2.4540    0.0000 C   0  0  0  0  0  0  0  0  0  0  0  0
  -12.2852   -3.2990    0.0000 C   0  0  0  0  0  0  0  0  0  0  0  0
  -12.3973   -4.7948    0.0000 C   0  0  0  0  0  0  0  0  0  0  0  0
  -10.9337   -2.6482    0.0000 N   0  0  0  0  0  0  0  0  0  0  0  0
  -10.8216   -1.1524    0.0000 C   0  0  0  0  0  0  0  0  0  0  0  0
   -9.6350   -0.2348    0.0000 N   0  0  0  0  0  0  0  0  0  0  0  0
   -8.1952   -0.6554    0.0000 C   0  0  0  0  0  0  0  0  0  0  0  0
   -7.1110    0.3812    0.0000 C   0  0  0  0  0  0  0  0  0  0  0  0
   -5.6712   -0.0395    0.0000 C   0  0  0  0  0  0  0  0  0  0  0  0
   -4.5870    0.9971    0.0000 C   0  0  0  0  0  0  0  0  0  0  0  0
   -4.9426    2.4544    0.0000 C   0  0  0  0  0  0  0  0  0  0  0  0
   -3.8584    3.4909    0.0000 C   0  0  0  0  0  0  0  0  0  0  0  0
   -4.2140    4.9482    0.0000 C   0  0  0  0  0  0  0  0  0  0  0  0
   -3.1298    5.9848    0.0000 C   0  0  0  0  0  0  0  0  0  0  0  0
   -1.9924    0.4024    0.0000 N   0  0  0  0  0  0  0  0  0  0  0  0
   -1.0323   -0.7500    0.0000 C   0  0  0  0  0  0  0  0  0  0  0  0
   -1.0323    0.7500    0.0000 C   0  0  0  0  0  0  0  0  0  0  0  0
   -2.2841    1.5763    0.0000 C   0  0  0  0  0  0  0  0  0  0  0  0
   -2.4186    3.0703    0.0000 C   0  0  0  0  0  0  0  0  0  0  0  0
   -1.3344    4.1069    0.0000 N   0  0  0  0  0  0  0  0  0  0  0  0
   -1.6900    5.5641    0.0000 N   0  0  0  0  0  0  0  0  0  0  0  0
    0.1520    3.9056    0.0000 N   0  0  0  0  0  0  0  0  0  0  0  0
    0.9784    5.1574    0.0000 O   0  0  0  0  0  0  0  0  0  0  0  0
    2.4757    5.0677    0.0000 C   0  0  0  0  0  0  0  0  0  0  0  0
    3.1466    3.7261    0.0000 C   0  0  0  0  0  0  0  0  0  0  0  0
    4.6440    3.6364    0.0000 C   0  0  0  0  0  0  0  0  0  0  0  0
    5.4703    4.8883    0.0000 C   0  0  0  0  0  0  0  0  0  0  0  0
    4.7993    6.2299    0.0000 C   0  0  0  0  0  0  0  0  0  0  0  0
    3.3020    6.3196    0.0000 C   0  0  0  0  0  0  0  0  0  0  0  0
    0.9214    2.6179    0.0000 N   0  0  0  0  0  0  0  0  0  0  0  0
    0.3943    1.2135    0.0000 C   0  0  0  0  0  0  0  0  0  0  0  0
    1.2760    0.0000    0.0000 C   0  0  0  0  0  0  0  0  0  0  0  0
    0.3943   -1.2135    0.0000 C   0  0  0  0  0  0  0  0  0  0  0  0
   -6.3824    2.8750    0.0000 C   0  0  0  0  0  0  0  0  0  0  0  0
   -7.4666    1.8384    0.0000 C   0  0  0  0  0  0  0  0  0  0  0  0
  1  2  1  0
  2  3  1  0
  3  4  2  0
  4  5  1  0
  5  6  2  0
  6  7  1  0
  6  8  1  0
  8  9  2  0
  9 10  1  0
  9 11  1  0
 11 12  2  0
 12 13  1  0
 13 14  1  0
 14 15  1  0
 15 16  2  0
 16 17  1  0
 17 18  2  0
 18 19  1  0
 19 20  2  0
 20 21  1  0
 21 22  2  3
 22 23  1  0
 23 24  2  0
 24 25  1  0
 25 26  2  0
 26 27  1  0
 27 28  1  0
 27 29  1  0
 29 30  1  0
 30 31  1  0
 31 32  2  0
 32 33  1  0
 33 34  2  0
 34 35  1  0
 35 36  2  0
 29 37  1  0
 37 38  1  0
 38 39  2  0
 39 40  2  0
 18 41  1  0
 41 42  2  0
 13  3  1  0
 42 15  1  0
 12  5  1  0
 26 19  1  0
 36 31  1  0
 28 21  1  0
 40 23  1  0
 38 24  1  0
M  END
$$$$
