
     RDKit          2D

 28 30  0  0  0  0  0  0  0  0999 V2000
    3.8395  -10.1162    0.0000 C   0  0  0  0  0  0  0  0  0  0  0  0
    4.2655   -8.6780    0.0000 C   0  0  0  0  0  0  0  0  0  0  0  0
    3.2330   -7.5899    0.0000 C   0  0  0  0  0  0  0  0  0  0  0  0
    3.6590   -6.1517    0.0000 C   0  0  0  0  0  0  0  0  0  0  0  0
    2.6265   -5.0636    0.0000 C   0  0  0  0  0  0  0  0  0  0  0  0
    2.8998   -3.5887    0.0000 N   0  0  0  0  0  0  0  0  0  0  0  0
    1.5816   -2.8730    0.0000 C   0  0  0  0  0  0  0  0  0  0  0  0
    1.3858   -1.3858    0.0000 C   0  0  0  0  0  0  0  0  0  0  0  0
    2.8730   -1.5816    0.0000 C   0  0  0  0  0  0  0  0  0  0  0  0
    3.7861   -0.3916    0.0000 C   0  0  0  0  0  0  0  0  0  0  0  0
    5.2733   -0.5874    0.0000 O   0  0  0  0  0  0  0  0  0  0  0  0
    3.2121    0.9942    0.0000 O   0  0  0  0  0  0  0  0  0  0  0  0
    1.9598    0.0000    0.0000 C   0  0  0  0  0  0  0  0  0  0  0  0
    1.3858    1.3858    0.0000 C   0  0  0  0  0  0  0  0  0  0  0  0
    0.0000    1.9598    0.0000 C   0  0  0  0  0  0  0  0  0  0  0  0
   -1.3858    1.3858    0.0000 C   0  0  0  0  0  0  0  0  0  0  0  0
   -1.9598    0.0000    0.0000 C   0  0  0  0  0  0  0  0  0  0  0  0
   -1.3858   -1.3858    0.0000 C   0  0  0  0  0  0  0  0  0  0  0  0
   -0.0000   -1.9598    0.0000 C   0  0  0  0  0  0  0  0  0  0  0  0
    0.4935   -3.9055    0.0000 N   0  0  0  0  0  0  0  0  0  0  0  0
    1.1393   -5.2594    0.0000 N   0  0  0  0  0  0  0  0  0  0  0  0
    0.4236   -6.5776    0.0000 C   0  0  0  0  0  0  0  0  0  0  0  0
   -1.0759   -6.6169    0.0000 C   0  0  0  0  0  0  0  0  0  0  0  0
   -1.8597   -5.3379    0.0000 C   0  0  0  0  0  0  0  0  0  0  0  0
   -3.3591   -5.3772    0.0000 C   0  0  0  0  0  0  0  0  0  0  0  0
   -4.0749   -6.6954    0.0000 C   0  0  0  0  0  0  0  0  0  0  0  0
   -3.2911   -7.9744    0.0000 C   0  0  0  0  0  0  0  0  0  0  0  0
   -1.7916   -7.9351    0.0000 C   0  0  0  0  0  0  0  0  0  0  0  0
  1  2  1  0
  2  3  1  0
  3  4  1  0
  4  5  1  0
  5  6  2  0
  6  7  1  0
  7  8  1  0
  8  9  1  0
  9 10  1  0
 10 11  2  0
 10 12  1  0
  8 13  1  0
 13 14  1  0
 14 15  1  0
 15 16  1  0
 16 17  1  0
 17 18  1  0
 18 19  1  0
  7 20  2  0
 20 21  1  0
 21 22  1  0
 22 23  1  0
 23 24  2  0
 24 25  1  0
 25 26  2  0
 26 27  1  0
 27 28  2  0
 21  5  1  0
 28 23  1  0
 19  8  1  0
M  END
$$$$
