
     RDKit          2D

 36 41  0  0  0  0  0  0  0  0999 V2000
    5.3141   -8.3328    0.0000 C   0  0  0  0  0  0  0  0  0  0  0  0
    5.7023   -6.8839    0.0000 C   0  0  0  0  0  0  0  0  0  0  0  0
    4.6416   -5.8232    0.0000 C   0  0  0  0  0  0  0  0  0  0  0  0
    5.0299   -4.3743    0.0000 C   0  0  0  0  0  0  0  0  0  0  0  0
    3.9692   -3.3137    0.0000 C   0  0  0  0  0  0  0  0  0  0  0  0
    4.2039   -1.8322    0.0000 N   0  0  0  0  0  0  0  0  0  0  0  0
    2.8674   -1.1512    0.0000 C   0  0  0  0  0  0  0  0  0  0  0  0
    3.5483   -2.4877    0.0000 N   0  0  0  0  0  0  0  0  0  0  0  0
    2.4877   -3.5483    0.0000 N   0  0  0  0  0  0  0  0  0  0  0  0
    1.1512   -2.8674    0.0000 C   0  0  0  0  0  0  0  0  0  0  0  0
   -0.1853   -3.5483    0.0000 O   0  0  0  0  0  0  0  0  0  0  0  0
    1.3858   -1.3858    0.0000 C   0  0  0  0  0  0  0  0  0  0  0  0
    1.9598    0.0000    0.0000 C   0  0  0  0  0  0  0  0  0  0  0  0
    1.3858    1.3858    0.0000 C   0  0  0  0  0  0  0  0  0  0  0  0
    0.0000    1.9598    0.0000 C   0  0  0  0  0  0  0  0  0  0  0  0
   -1.3858    1.3858    0.0000 C   0  0  0  0  0  0  0  0  0  0  0  0
   -1.9598    0.0000    0.0000 C   0  0  0  0  0  0  0  0  0  0  0  0
   -1.3858   -1.3858    0.0000 C   0  0  0  0  0  0  0  0  0  0  0  0
   -2.4465   -2.4465    0.0000 C   0  0  0  0  0  0  0  0  0  0  0  0
   -3.8954   -2.0583    0.0000 C   0  0  0  0  0  0  0  0  0  0  0  0
   -4.9560   -3.1189    0.0000 C   0  0  0  0  0  0  0  0  0  0  0  0
   -4.5678   -4.5678    0.0000 C   0  0  0  0  0  0  0  0  0  0  0  0
   -5.6285   -5.6285    0.0000 C   0  0  0  0  0  0  0  0  0  0  0  0
   -7.0773   -5.2402    0.0000 C   0  0  0  0  0  0  0  0  0  0  0  0
   -8.1380   -6.3009    0.0000 C   0  0  0  0  0  0  0  0  0  0  0  0
   -7.7498   -7.7498    0.0000 C   0  0  0  0  0  0  0  0  0  0  0  0
   -6.3009   -8.1380    0.0000 C   0  0  0  0  0  0  0  0  0  0  0  0
   -5.2402   -7.0773    0.0000 C   0  0  0  0  0  0  0  0  0  0  0  0
   -3.7913   -7.4656    0.0000 C   0  0  0  0  0  0  0  0  0  0  0  0
   -2.6256   -6.5216    0.0000 N   0  0  0  0  0  0  0  0  0  0  0  0
   -1.3676   -7.3386    0.0000 N   0  0  0  0  0  0  0  0  0  0  0  0
   -1.7558   -8.7874    0.0000 N   0  0  0  0  0  0  0  0  0  0  0  0
   -3.2538   -8.8659    0.0000 N   0  0  0  0  0  0  0  0  0  0  0  0
   -3.1189   -4.9560    0.0000 C   0  0  0  0  0  0  0  0  0  0  0  0
   -2.0583   -3.8954    0.0000 C   0  0  0  0  0  0  0  0  0  0  0  0
   -0.0000   -1.9598    0.0000 C   0  0  0  0  0  0  0  0  0  0  0  0
  1  2  1  0
  2  3  1  0
  3  4  1  0
  4  5  1  0
  5  6  2  0
  6  7  1  0
  7  8  2  0
  8  9  1  0
  9 10  1  0
 10 11  2  0
 10 12  1  0
 12 13  1  0
 13 14  1  0
 14 15  1  0
 15 16  1  0
 16 17  1  0
 17 18  1  0
 18 19  1  0
 19 20  2  0
 20 21  1  0
 21 22  2  0
 22 23  1  0
 23 24  2  0
 24 25  1  0
 25 26  2  0
 26 27  1  0
 27 28  2  0
 28 29  1  0
 29 30  2  0
 30 31  1  0
 31 32  2  0
 32 33  1  0
 22 34  1  0
 34 35  2  0
 18 36  1  0
  9  5  1  0
 36 12  1  0
 12  7  1  0
 35 19  1  0
 28 23  1  0
 33 29  1  0
M  END
$$$$
