
     RDKit          2D

 78 85  0  0  0  0  0  0  0  0999 V2000
  -12.9229  -14.6339    0.0000 O   0  0  0  0  0  0  0  0  0  0  0  0
  -11.4740  -14.2456    0.0000 C   0  0  0  0  0  0  0  0  0  0  0  0
  -10.0251  -13.8574    0.0000 N   0  0  0  0  0  0  0  0  0  0  0  0
   -9.6369  -12.4085    0.0000 N   0  0  0  0  0  0  0  0  0  0  0  0
   -8.1880  -12.0203    0.0000 C   0  0  0  0  0  0  0  0  0  0  0  0
   -7.7998  -10.5714    0.0000 O   0  0  0  0  0  0  0  0  0  0  0  0
   -7.1273  -13.0810    0.0000 C   0  0  0  0  0  0  0  0  0  0  0  0
   -5.6784  -12.6927    0.0000 C   0  0  0  0  0  0  0  0  0  0  0  0
   -4.6178  -13.7534    0.0000 N   0  0  0  0  0  0  0  0  0  0  0  0
   -3.1689  -13.3652    0.0000 C   0  0  0  0  0  0  0  0  0  0  0  0
   -2.7807  -11.9163    0.0000 C   0  0  0  0  0  0  0  0  0  0  0  0
   -1.3318  -11.5280    0.0000 C   0  0  0  0  0  0  0  0  0  0  0  0
   -0.2711  -12.5887    0.0000 O   0  0  0  0  0  0  0  0  0  0  0  0
   -0.9436  -10.0792    0.0000 O   0  0  0  0  0  0  0  0  0  0  0  0
    0.5053   -9.6909    0.0000 C   0  0  0  0  0  0  0  0  0  0  0  0
    1.5660  -10.7516    0.0000 O   0  0  0  0  0  0  0  0  0  0  0  0
    0.8936   -8.2420    0.0000 C   0  0  0  0  0  0  0  0  0  0  0  0
   -0.1671   -7.1814    0.0000 O   0  0  0  0  0  0  0  0  0  0  0  0
    2.3425   -7.8538    0.0000 C   0  0  0  0  0  0  0  0  0  0  0  0
    3.4031   -8.9145    0.0000 O   0  0  0  0  0  0  0  0  0  0  0  0
    2.7307   -6.4049    0.0000 O   0  0  0  0  0  0  0  0  0  0  0  0
    4.1796   -6.0167    0.0000 C   0  0  0  0  0  0  0  0  0  0  0  0
    5.2402   -7.0773    0.0000 O   0  0  0  0  0  0  0  0  0  0  0  0
    4.5678   -4.5678    0.0000 C   0  0  0  0  0  0  0  0  0  0  0  0
    3.5071   -3.5071    0.0000 N   0  0  0  0  0  0  0  0  0  0  0  0
    3.8954   -2.0583    0.0000 N   0  0  0  0  0  0  0  0  0  0  0  0
    2.8347   -0.9976    0.0000 C   0  0  0  0  0  0  0  0  0  0  0  0
    2.6707   -1.8045    0.0000 N   0  0  0  0  0  0  0  0  0  0  0  0
    2.3197   -3.1146    0.0000 C   0  0  0  0  0  0  0  0  0  0  0  0
    2.0583   -3.8954    0.0000 C   0  0  0  0  0  0  0  0  0  0  0  0
    0.9976   -2.8347    0.0000 C   0  0  0  0  0  0  0  0  0  0  0  0
    1.3858   -1.3858    0.0000 C   0  0  0  0  0  0  0  0  0  0  0  0
    1.9598    0.0000    0.0000 C   0  0  0  0  0  0  0  0  0  0  0  0
    1.3858    1.3858    0.0000 C   0  0  0  0  0  0  0  0  0  0  0  0
    0.0000    1.9598    0.0000 C   0  0  0  0  0  0  0  0  0  0  0  0
   -1.3858    1.3858    0.0000 C   0  0  0  0  0  0  0  0  0  0  0  0
   -1.9598    0.0000    0.0000 C   0  0  0  0  0  0  0  0  0  0  0  0
   -1.3858   -1.3858    0.0000 C   0  0  0  0  0  0  0  0  0  0  0  0
   -2.4465   -2.4465    0.0000 C   0  0  0  0  0  0  0  0  0  0  0  0
   -2.2118   -3.9280    0.0000 C   0  0  0  0  0  0  0  0  0  0  0  0
   -3.5483   -4.6090    0.0000 N   0  0  0  0  0  0  0  0  0  0  0  0
   -4.6090   -3.5483    0.0000 C   0  0  0  0  0  0  0  0  0  0  0  0
   -3.9280   -2.2118    0.0000 N   0  0  0  0  0  0  0  0  0  0  0  0
   -0.0000   -1.9598    0.0000 C   0  0  0  0  0  0  0  0  0  0  0  0
   -3.8413  -10.8556    0.0000 N   0  0  0  0  0  0  0  0  0  0  0  0
   -5.2902  -11.2438    0.0000 C   0  0  0  0  0  0  0  0  0  0  0  0
   -6.3509  -10.1832    0.0000 N   0  0  0  0  0  0  0  0  0  0  0  0
   -5.9626   -8.7343    0.0000 C   0  0  0  0  0  0  0  0  0  0  0  0
   -4.5138   -8.3461    0.0000 C   0  0  0  0  0  0  0  0  0  0  0  0
   -4.1255   -6.8972    0.0000 C   0  0  0  0  0  0  0  0  0  0  0  0
   -2.6766   -6.5089    0.0000 O   0  0  0  0  0  0  0  0  0  0  0  0
   -5.1862   -5.8365    0.0000 C   0  0  0  0  0  0  0  0  0  0  0  0
   -4.7980   -4.3876    0.0000 O   0  0  0  0  0  0  0  0  0  0  0  0
   -5.8586   -3.3270    0.0000 O   0  0  0  0  0  0  0  0  0  0  0  0
   -5.4704   -1.8781    0.0000 O   0  0  0  0  0  0  0  0  0  0  0  0
   -6.5311   -0.8174    0.0000 O   0  0  0  0  0  0  0  0  0  0  0  0
   -6.1428    0.6315    0.0000 O   0  0  0  0  0  0  0  0  0  0  0  0
   -7.2035    1.6921    0.0000 O   0  0  0  0  0  0  0  0  0  0  0  0
   -6.8153    3.1410    0.0000 O   0  0  0  0  0  0  0  0  0  0  0  0
   -7.8759    4.2017    0.0000 O   0  0  0  0  0  0  0  0  0  0  0  0
   -7.4877    5.6506    0.0000 O   0  0  0  0  0  0  0  0  0  0  0  0
   -8.5484    6.7112    0.0000 O   0  0  0  0  0  0  0  0  0  0  0  0
   -8.1601    8.1601    0.0000 C   0  0  0  0  0  0  0  0  0  0  0  0
   -6.7112    8.5484    0.0000 C   0  0  0  0  0  0  0  0  0  0  0  0
   -6.3230    9.9972    0.0000 C   0  0  0  0  0  0  0  0  0  0  0  0
   -7.3837   11.0579    0.0000 C   0  0  0  0  0  0  0  0  0  0  0  0
   -8.8326   10.6697    0.0000 C   0  0  0  0  0  0  0  0  0  0  0  0
   -9.2208    9.2208    0.0000 C   0  0  0  0  0  0  0  0  0  0  0  0
   -6.6351   -6.2247    0.0000 C   0  0  0  0  0  0  0  0  0  0  0  0
   -7.0233   -7.6736    0.0000 C   0  0  0  0  0  0  0  0  0  0  0  0
   -8.4722   -8.0619    0.0000 O   0  0  0  0  0  0  0  0  0  0  0  0
  -10.6975  -11.3479    0.0000 C   0  0  0  0  0  0  0  0  0  0  0  0
  -10.3093   -9.8990    0.0000 C   0  0  0  0  0  0  0  0  0  0  0  0
  -11.3700   -8.8383    0.0000 C   0  0  0  0  0  0  0  0  0  0  0  0
  -12.8189   -9.2265    0.0000 C   0  0  0  0  0  0  0  0  0  0  0  0
  -13.8795   -8.1659    0.0000 O   0  0  0  0  0  0  0  0  0  0  0  0
  -13.2071  -10.6754    0.0000 C   0  0  0  0  0  0  0  0  0  0  0  0
  -12.1464  -11.7361    0.0000 C   0  0  0  0  0  0  0  0  0  0  0  0
  1  2  2  0
  2  3  2  0
  3  4  1  0
  4  5  1  0
  5  6  2  0
  5  7  1  0
  7  8  1  0
  8  9  2  0
  9 10  1  0
 10 11  2  0
 11 12  1  0
 12 13  2  0
 12 14  1  0
 14 15  1  0
 15 16  2  0
 15 17  1  0
 17 18  2  0
 17 19  1  0
 19 20  2  0
 19 21  1  0
 21 22  1  0
 22 23  2  0
 22 24  1  0
 24 25  1  0
 25 26  1  0
 26 27  2  0
 27 28  1  0
 28 29  2  0
 29 30  2  0
 30 31  1  0
 31 32  1  0
 32 33  1  0
 33 34  1  0
 34 35  1  0
 35 36  1  0
 36 37  1  0
 37 38  1  0
 38 39  1  0
 39 40  2  0
 40 41  1  0
 41 42  2  0
 42 43  1  0
 38 44  1  0
 11 45  1  0
 45 46  2  0
 46 47  1  0
 47 48  1  0
 48 49  2  0
 49 50  1  0
 50 51  1  0
 50 52  2  0
 52 53  1  0
 53 54  1  0
 54 55  1  0
 55 56  1  0
 56 57  1  0
 57 58  1  0
 58 59  1  0
 59 60  1  0
 60 61  1  0
 61 62  1  0
 62 63  1  0
 63 64  2  0
 64 65  1  0
 65 66  2  0
 66 67  1  0
 67 68  2  0
 52 69  1  0
 69 70  2  0
 70 71  1  0
  4 72  1  0
 72 73  2  0
 73 74  1  0
 74 75  2  0
 75 76  1  0
 75 77  1  0
 77 78  2  0
 46  8  1  0
 70 48  1  0
 78 72  1  0
 30 25  1  0
 44 32  1  0
 68 63  1  0
 32 27  1  0
 43 39  1  0
M  END
$$$$
