
     RDKit          2D

 53 56  0  0  0  0  0  0  0  0999 V2000
    2.9444   -5.7199    0.0000 O   0  0  0  0  0  0  0  0  0  0  0  0
    3.9510   -6.1471    0.0000 C   0  0  0  0  0  0  0  0  0  0  0  0
    3.9510   -7.6471    0.0000 C   0  0  0  0  0  0  0  0  0  0  0  0
    2.6519   -8.3971    0.0000 C   0  0  0  0  0  0  0  0  0  0  0  0
    2.6519   -9.8971    0.0000 C   0  0  0  0  0  0  0  0  0  0  0  0
    1.3529  -10.6471    0.0000 C   0  0  0  0  0  0  0  0  0  0  0  0
    1.3529  -12.1471    0.0000 C   0  0  0  0  0  0  0  0  0  0  0  0
    0.0538  -12.8971    0.0000 C   0  0  0  0  0  0  0  0  0  0  0  0
    0.0538  -14.3971    0.0000 C   0  0  0  0  0  0  0  0  0  0  0  0
   -1.2452  -15.1471    0.0000 C   0  0  0  0  0  0  0  0  0  0  0  0
   -1.2452  -16.6471    0.0000 C   0  0  0  0  0  0  0  0  0  0  0  0
   -2.5442  -17.3971    0.0000 N   0  0  0  0  0  0  0  0  0  0  0  0
   -3.9145  -16.7870    0.0000 N   0  0  0  0  0  0  0  0  0  0  0  0
   -4.9182  -17.9017    0.0000 C   0  0  0  0  0  0  0  0  0  0  0  0
   -4.1682  -19.2008    0.0000 N   0  0  0  0  0  0  0  0  0  0  0  0
   -2.7010  -18.8889    0.0000 C   0  0  0  0  0  0  0  0  0  0  0  0
   -1.5863  -19.8926    0.0000 O   0  0  0  0  0  0  0  0  0  0  0  0
    5.2500   -5.3971    0.0000 O   0  0  0  0  0  0  0  0  0  0  0  0
    5.2500   -3.8971    0.0000 C   0  0  0  0  0  0  0  0  0  0  0  0
    6.7500   -3.8971    0.0000 C   0  0  0  0  0  0  0  0  0  0  0  0
    7.5000   -2.5981    0.0000 O   0  0  0  0  0  0  0  0  0  0  0  0
    7.5000   -5.1962    0.0000 C   0  0  0  0  0  0  0  0  0  0  0  0
    9.0000   -5.1962    0.0000 C   0  0  0  0  0  0  0  0  0  0  0  0
    9.7500   -6.4952    0.0000 C   0  0  0  0  0  0  0  0  0  0  0  0
    9.1399   -7.8655    0.0000 C   0  0  0  0  0  0  0  0  0  0  0  0
    7.6727   -8.1774    0.0000 Cl  0  0  0  0  0  0  0  0  0  0  0  0
   10.2546   -8.8692    0.0000 N   0  0  0  0  0  0  0  0  0  0  0  0
   11.5537   -8.1192    0.0000 C   0  0  0  0  0  0  0  0  0  0  0  0
   11.2418   -6.6520    0.0000 N   0  0  0  0  0  0  0  0  0  0  0  0
    3.7500   -3.8971    0.0000 C   0  0  0  0  0  0  0  0  0  0  0  0
    3.0919   -4.7704    0.0000 O   0  0  0  0  0  0  0  0  0  0  0  0
    3.0000   -2.5981    0.0000 O   0  0  0  0  0  0  0  0  0  0  0  0
    1.5000   -2.5981    0.0000 C   0  0  0  0  0  0  0  0  0  0  0  0
    0.7500   -3.8971    0.0000 O   0  0  0  0  0  0  0  0  0  0  0  0
    0.7500   -1.2990    0.0000 C   0  0  0  0  0  0  0  0  0  0  0  0
    1.5000    0.0000    0.0000 C   0  0  0  0  0  0  0  0  0  0  0  0
    0.7500    1.2990    0.0000 C   0  0  0  0  0  0  0  0  0  0  0  0
   -0.7500    1.2990    0.0000 C   0  0  0  0  0  0  0  0  0  0  0  0
   -1.5000    0.0000    0.0000 C   0  0  0  0  0  0  0  0  0  0  0  0
   -0.7500   -1.2990    0.0000 C   0  0  0  0  0  0  0  0  0  0  0  0
   -1.5000   -2.5981    0.0000 Cl  0  0  0  0  0  0  0  0  0  0  0  0
    5.2500   -2.3971    0.0000 C   0  0  0  0  0  0  0  0  0  0  0  0
    3.9510   -1.6471    0.0000 O   0  0  0  0  0  0  0  0  0  0  0  0
    6.5490   -1.6471    0.0000 O   0  0  0  0  0  0  0  0  0  0  0  0
    6.5490   -0.1471    0.0000 C   0  0  0  0  0  0  0  0  0  0  0  0
    5.2500    0.6029    0.0000 O   0  0  0  0  0  0  0  0  0  0  0  0
    7.8481    0.6029    0.0000 C   0  0  0  0  0  0  0  0  0  0  0  0
    9.1471   -0.1471    0.0000 C   0  0  0  0  0  0  0  0  0  0  0  0
   10.4462    0.6029    0.0000 C   0  0  0  0  0  0  0  0  0  0  0  0
   10.4462    2.1029    0.0000 C   0  0  0  0  0  0  0  0  0  0  0  0
    9.1471    2.8529    0.0000 C   0  0  0  0  0  0  0  0  0  0  0  0
    7.8481    2.1029    0.0000 C   0  0  0  0  0  0  0  0  0  0  0  0
    6.5490    2.8529    0.0000 Cl  0  0  0  0  0  0  0  0  0  0  0  0
  1  2  2  0
  2  3  1  0
  3  4  1  0
  4  5  1  0
  5  6  1  0
  6  7  1  0
  7  8  1  0
  8  9  1  0
  9 10  1  0
 10 11  1  0
 11 12  1  0
 12 13  1  0
 13 14  2  0
 14 15  1  0
 15 16  1  0
 16 17  2  0
  2 18  1  0
 18 19  1  0
 19 20  1  0
 20 21  2  0
 20 22  1  0
 22 23  1  0
 23 24  1  0
 24 25  2  0
 25 26  1  0
 25 27  1  0
 27 28  2  0
 28 29  1  0
 19 30  1  0
 30 31  2  0
 30 32  1  0
 32 33  1  0
 33 34  2  0
 33 35  1  0
 35 36  2  0
 36 37  1  0
 37 38  2  0
 38 39  1  0
 39 40  2  0
 40 41  1  0
 19 42  1  0
 42 43  2  0
 42 44  1  0
 44 45  1  0
 45 46  2  0
 45 47  1  0
 47 48  2  0
 48 49  1  0
 49 50  2  0
 50 51  1  0
 51 52  2  0
 52 53  1  0
 16 12  1  0
 29 24  1  0
 40 35  1  0
 52 47  1  0
M  END
$$$$
