
     RDKit          2D

 30 32  0  0  0  0  0  0  0  0999 V2000
    1.9135   11.8259    0.0000 C   0  0  0  0  0  0  0  0  0  0  0  0
    2.4915   10.4418    0.0000 C   0  0  0  0  0  0  0  0  0  0  0  0
    1.5819    9.2491    0.0000 C   0  0  0  0  0  0  0  0  0  0  0  0
    2.1599    7.8649    0.0000 C   0  0  0  0  0  0  0  0  0  0  0  0
    1.2502    6.6723    0.0000 O   0  0  0  0  0  0  0  0  0  0  0  0
    1.8283    5.2881    0.0000 C   0  0  0  0  0  0  0  0  0  0  0  0
    1.0483    4.0069    0.0000 N   0  0  0  0  0  0  0  0  0  0  0  0
    2.0257    2.8691    0.0000 C   0  0  0  0  0  0  0  0  0  0  0  0
    1.6798    1.4095    0.0000 C   0  0  0  0  0  0  0  0  0  0  0  0
    0.3808    2.1595    0.0000 C   0  0  0  0  0  0  0  0  0  0  0  0
   -0.9183    1.4095    0.0000 O   0  0  0  0  0  0  0  0  0  0  0  0
    0.0178    3.6150    0.0000 O   0  0  0  0  0  0  0  0  0  0  0  0
    0.5888    0.3802    0.0000 C   0  0  0  0  0  0  0  0  0  0  0  0
    0.4146   -1.1097    0.0000 C   0  0  0  0  0  0  0  0  0  0  0  0
    1.2389   -2.3629    0.0000 C   0  0  0  0  0  0  0  0  0  0  0  0
    2.6759   -2.7931    0.0000 C   0  0  0  0  0  0  0  0  0  0  0  0
    4.0532   -2.1990    0.0000 C   0  0  0  0  0  0  0  0  0  0  0  0
    4.7264   -0.8585    0.0000 C   0  0  0  0  0  0  0  0  0  0  0  0
    4.3805    0.6010    0.0000 C   0  0  0  0  0  0  0  0  0  0  0  0
    3.1773    1.4968    0.0000 C   0  0  0  0  0  0  0  0  0  0  0  0
    3.4099    3.4472    0.0000 N   0  0  0  0  0  0  0  0  0  0  0  0
    3.2879    4.9422    0.0000 N   0  0  0  0  0  0  0  0  0  0  0  0
    4.4256    5.9197    0.0000 C   0  0  0  0  0  0  0  0  0  0  0  0
    4.1480    7.3938    0.0000 O   0  0  0  0  0  0  0  0  0  0  0  0
    5.8410    5.4231    0.0000 C   0  0  0  0  0  0  0  0  0  0  0  0
    6.1187    3.9490    0.0000 C   0  0  0  0  0  0  0  0  0  0  0  0
    7.5341    3.4524    0.0000 C   0  0  0  0  0  0  0  0  0  0  0  0
    8.6719    4.4299    0.0000 C   0  0  0  0  0  0  0  0  0  0  0  0
    8.3942    5.9040    0.0000 C   0  0  0  0  0  0  0  0  0  0  0  0
    6.9788    6.4006    0.0000 C   0  0  0  0  0  0  0  0  0  0  0  0
  1  2  1  0
  2  3  1  0
  3  4  1  0
  4  5  1  0
  5  6  1  0
  6  7  2  0
  7  8  1  0
  8  9  1  0
  9 10  1  0
 10 11  2  0
 10 12  1  0
  9 13  1  0
 13 14  1  0
 14 15  1  0
 15 16  1  0
 16 17  1  0
 17 18  1  0
 18 19  1  0
 19 20  1  0
  8 21  2  0
 21 22  1  0
 22 23  1  0
 23 24  2  0
 23 25  1  0
 25 26  2  0
 26 27  1  0
 27 28  2  0
 28 29  1  0
 29 30  2  0
 22  6  1  0
 30 25  1  0
 20  9  1  0
M  END
$$$$
