
     RDKit          2D

 52 60  0  0  0  0  0  0  0  0999 V2000
   -6.2825   17.0302    0.0000 C   0  0  0  0  0  0  0  0  0  0  0  0
   -5.6724   15.6599    0.0000 C   0  0  0  0  0  0  0  0  0  0  0  0
   -6.5541   14.4464    0.0000 C   0  0  0  0  0  0  0  0  0  0  0  0
   -5.9439   13.0761    0.0000 C   0  0  0  0  0  0  0  0  0  0  0  0
   -4.4767   12.7642    0.0000 N   0  0  0  0  0  0  0  0  0  0  0  0
   -4.3199   11.2724    0.0000 C   0  0  0  0  0  0  0  0  0  0  0  0
   -3.1064   10.3907    0.0000 C   0  0  0  0  0  0  0  0  0  0  0  0
   -1.7361   11.0008    0.0000 C   0  0  0  0  0  0  0  0  0  0  0  0
   -3.2632    8.8990    0.0000 C   0  0  0  0  0  0  0  0  0  0  0  0
   -4.6335    8.2888    0.0000 C   0  0  0  0  0  0  0  0  0  0  0  0
   -4.7903    6.7971    0.0000 C   0  0  0  0  0  0  0  0  0  0  0  0
   -3.6756    5.7934    0.0000 C   0  0  0  0  0  0  0  0  0  0  0  0
   -4.2857    4.4231    0.0000 N   0  0  0  0  0  0  0  0  0  0  0  0
   -3.5357    3.1240    0.0000 C   0  0  0  0  0  0  0  0  0  0  0  0
   -2.0439    2.9672    0.0000 C   0  0  0  0  0  0  0  0  0  0  0  0
   -1.7321    1.5000    0.0000 C   0  0  0  0  0  0  0  0  0  0  0  0
   -0.4330    0.7500    0.0000 C   0  0  0  0  0  0  0  0  0  0  0  0
    0.8660    0.0000    0.0000 C   0  0  0  0  0  0  0  0  0  0  0  0
   -0.4330   -0.7500    0.0000 C   0  0  0  0  0  0  0  0  0  0  0  0
   -1.7321   -1.5000    0.0000 C   0  0  0  0  0  0  0  0  0  0  0  0
   -3.0311   -0.7500    0.0000 O   0  0  0  0  0  0  0  0  0  0  0  0
   -3.0311    0.7500    0.0000 C   0  0  0  0  0  0  0  0  0  0  0  0
   -4.1458    1.7537    0.0000 N   0  0  0  0  0  0  0  0  0  0  0  0
   -5.7775    4.5798    0.0000 C   0  0  0  0  0  0  0  0  0  0  0  0
   -6.7812    3.4651    0.0000 C   0  0  0  0  0  0  0  0  0  0  0  0
   -8.2484    3.7770    0.0000 N   0  0  0  0  0  0  0  0  0  0  0  0
   -9.2521    2.6623    0.0000 C   0  0  0  0  0  0  0  0  0  0  0  0
  -10.7193    2.9741    0.0000 C   0  0  0  0  0  0  0  0  0  0  0  0
  -11.7230    1.8594    0.0000 C   0  0  0  0  0  0  0  0  0  0  0  0
  -11.2595    0.4328    0.0000 C   0  0  0  0  0  0  0  0  0  0  0  0
   -9.7923    0.1210    0.0000 C   0  0  0  0  0  0  0  0  0  0  0  0
   -8.7886    1.2357    0.0000 C   0  0  0  0  0  0  0  0  0  0  0  0
   -6.0894    6.0471    0.0000 N   0  0  0  0  0  0  0  0  0  0  0  0
   -5.8470    9.1705    0.0000 C   0  0  0  0  0  0  0  0  0  0  0  0
   -5.6903   10.6623    0.0000 C   0  0  0  0  0  0  0  0  0  0  0  0
   -6.6939   11.7770    0.0000 N   0  0  0  0  0  0  0  0  0  0  0  0
   -8.1857   11.6202    0.0000 C   0  0  0  0  0  0  0  0  0  0  0  0
   -9.0674   12.8338    0.0000 C   0  0  0  0  0  0  0  0  0  0  0  0
   -8.4573   14.2041    0.0000 C   0  0  0  0  0  0  0  0  0  0  0  0
   -9.3390   15.4176    0.0000 C   0  0  0  0  0  0  0  0  0  0  0  0
  -10.8308   15.2608    0.0000 C   0  0  0  0  0  0  0  0  0  0  0  0
  -11.7124   16.4743    0.0000 C   0  0  0  0  0  0  0  0  0  0  0  0
  -11.1023   17.8447    0.0000 C   0  0  0  0  0  0  0  0  0  0  0  0
  -11.9840   19.0582    0.0000 C   0  0  0  0  0  0  0  0  0  0  0  0
  -13.4758   18.9014    0.0000 C   0  0  0  0  0  0  0  0  0  0  0  0
  -14.0859   17.5311    0.0000 C   0  0  0  0  0  0  0  0  0  0  0  0
  -13.2042   16.3175    0.0000 C   0  0  0  0  0  0  0  0  0  0  0  0
  -13.8143   14.9472    0.0000 C   0  0  0  0  0  0  0  0  0  0  0  0
  -12.9327   13.7337    0.0000 O   0  0  0  0  0  0  0  0  0  0  0  0
  -15.3061   14.7904    0.0000 O   0  0  0  0  0  0  0  0  0  0  0  0
  -11.4409   13.8905    0.0000 C   0  0  0  0  0  0  0  0  0  0  0  0
  -10.5592   12.6770    0.0000 C   0  0  0  0  0  0  0  0  0  0  0  0
  1  2  1  0
  2  3  1  0
  3  4  1  0
  4  5  2  0
  5  6  1  0
  6  7  2  0
  7  8  1  0
  7  9  1  0
  9 10  2  0
 10 11  1  0
 11 12  2  0
 12 13  1  0
 13 14  1  0
 14 15  2  0
 15 16  2  0
 16 17  1  0
 17 18  2  0
 18 19  2  0
 19 20  1  0
 20 21  1  0
 21 22  1  0
 22 23  2  0
 13 24  1  0
 24 25  1  0
 25 26  1  0
 26 27  1  0
 27 28  2  0
 28 29  1  0
 29 30  2  0
 30 31  1  0
 31 32  2  0
 24 33  2  0
 10 34  1  0
 34 35  2  0
 35 36  1  0
 36 37  1  0
 37 38  1  0
 38 39  2  0
 39 40  1  0
 40 41  2  0
 41 42  1  0
 42 43  2  0
 43 44  1  0
 44 45  2  0
 45 46  1  0
 46 47  2  0
 47 48  1  0
 48 49  2  0
 48 50  1  0
 41 51  1  0
 51 52  2  0
 36  4  1  0
 52 38  1  0
 35  6  1  0
 47 42  1  0
 33 11  1  0
 23 14  1  0
 32 27  1  0
 22 16  1  0
 19 17  1  0
M  END
$$$$
