
     RDKit          2D

 51 54  0  0  0  0  0  0  0  0999 V2000
    6.3579   -8.4259    0.0000 C   0  0  0  0  0  0  0  0  0  0  0  0
    6.2011   -6.9341    0.0000 C   0  0  0  0  0  0  0  0  0  0  0  0
    4.8308   -6.3240    0.0000 C   0  0  0  0  0  0  0  0  0  0  0  0
    4.6740   -4.8322    0.0000 C   0  0  0  0  0  0  0  0  0  0  0  0
    3.3037   -4.2221    0.0000 C   0  0  0  0  0  0  0  0  0  0  0  0
    2.9918   -2.7549    0.0000 N   0  0  0  0  0  0  0  0  0  0  0  0
    1.5000   -2.5981    0.0000 N   0  0  0  0  0  0  0  0  0  0  0  0
    0.7500   -1.2990    0.0000 C   0  0  0  0  0  0  0  0  0  0  0  0
    1.5000    0.0000    0.0000 C   0  0  0  0  0  0  0  0  0  0  0  0
    0.7500    1.2990    0.0000 C   0  0  0  0  0  0  0  0  0  0  0  0
   -0.7500    1.2990    0.0000 C   0  0  0  0  0  0  0  0  0  0  0  0
   -1.5000    0.0000    0.0000 C   0  0  0  0  0  0  0  0  0  0  0  0
   -0.7500   -1.2990    0.0000 C   0  0  0  0  0  0  0  0  0  0  0  0
   -1.5000   -2.5981    0.0000 Cl  0  0  0  0  0  0  0  0  0  0  0  0
    0.8899   -3.9684    0.0000 C   0  0  0  0  0  0  0  0  0  0  0  0
   -0.5773   -4.2803    0.0000 O   0  0  0  0  0  0  0  0  0  0  0  0
    2.0046   -4.9721    0.0000 N   0  0  0  0  0  0  0  0  0  0  0  0
    1.8478   -6.4639    0.0000 C   0  0  0  0  0  0  0  0  0  0  0  0
    0.4775   -7.0740    0.0000 C   0  0  0  0  0  0  0  0  0  0  0  0
   -0.7360   -6.1923    0.0000 C   0  0  0  0  0  0  0  0  0  0  0  0
   -2.1063   -6.8024    0.0000 C   0  0  0  0  0  0  0  0  0  0  0  0
   -2.2631   -8.2942    0.0000 C   0  0  0  0  0  0  0  0  0  0  0  0
   -3.6335   -8.9043    0.0000 C   0  0  0  0  0  0  0  0  0  0  0  0
   -4.8470   -8.0226    0.0000 C   0  0  0  0  0  0  0  0  0  0  0  0
   -6.2173   -8.6327    0.0000 C   0  0  0  0  0  0  0  0  0  0  0  0
   -7.4308   -7.7510    0.0000 N   0  0  0  0  0  0  0  0  0  0  0  0
   -7.2740   -6.2593    0.0000 C   0  0  0  0  0  0  0  0  0  0  0  0
   -5.9037   -5.6492    0.0000 O   0  0  0  0  0  0  0  0  0  0  0  0
   -8.4876   -5.3776    0.0000 N   0  0  0  0  0  0  0  0  0  0  0  0
   -8.3308   -3.8858    0.0000 C   0  0  0  0  0  0  0  0  0  0  0  0
   -6.9604   -3.2757    0.0000 O   0  0  0  0  0  0  0  0  0  0  0  0
   -9.5443   -3.0041    0.0000 N   0  0  0  0  0  0  0  0  0  0  0  0
   -9.3875   -1.5123    0.0000 C   0  0  0  0  0  0  0  0  0  0  0  0
  -10.6010   -0.6307    0.0000 C   0  0  0  0  0  0  0  0  0  0  0  0
  -11.9713   -1.2408    0.0000 O   0  0  0  0  0  0  0  0  0  0  0  0
  -10.4442    0.8611    0.0000 O   0  0  0  0  0  0  0  0  0  0  0  0
  -11.6578    1.7428    0.0000 C   0  0  0  0  0  0  0  0  0  0  0  0
  -11.5010    3.2346    0.0000 C   0  0  0  0  0  0  0  0  0  0  0  0
  -10.9146   -3.6142    0.0000 C   0  0  0  0  0  0  0  0  0  0  0  0
  -11.0714   -5.1060    0.0000 C   0  0  0  0  0  0  0  0  0  0  0  0
   -9.8579   -5.9877    0.0000 O   0  0  0  0  0  0  0  0  0  0  0  0
  -12.4417   -5.7161    0.0000 O   0  0  0  0  0  0  0  0  0  0  0  0
  -12.5985   -7.2079    0.0000 C   0  0  0  0  0  0  0  0  0  0  0  0
  -13.9688   -7.8180    0.0000 C   0  0  0  0  0  0  0  0  0  0  0  0
  -14.1256   -9.3098    0.0000 O   0  0  0  0  0  0  0  0  0  0  0  0
   -6.3741  -10.1245    0.0000 C   0  0  0  0  0  0  0  0  0  0  0  0
   -5.1606  -11.0062    0.0000 C   0  0  0  0  0  0  0  0  0  0  0  0
   -3.7902  -10.3961    0.0000 C   0  0  0  0  0  0  0  0  0  0  0  0
   -2.5767  -11.2778    0.0000 Cl  0  0  0  0  0  0  0  0  0  0  0  0
   -1.0496   -9.1759    0.0000 C   0  0  0  0  0  0  0  0  0  0  0  0
    0.3207   -8.5658    0.0000 C   0  0  0  0  0  0  0  0  0  0  0  0
  1  2  1  0
  2  3  1  0
  3  4  1  0
  4  5  1  0
  5  6  2  0
  6  7  1  0
  7  8  1  0
  8  9  2  0
  9 10  1  0
 10 11  2  0
 11 12  1  0
 12 13  2  0
 13 14  1  0
  7 15  1  0
 15 16  2  0
 15 17  1  0
 17 18  1  0
 18 19  1  0
 19 20  2  0
 20 21  1  0
 21 22  2  0
 22 23  1  0
 23 24  2  0
 24 25  1  0
 25 26  1  0
 26 27  1  0
 27 28  2  0
 27 29  1  0
 29 30  1  0
 30 31  2  0
 30 32  1  0
 32 33  1  0
 33 34  1  0
 34 35  2  0
 34 36  1  0
 36 37  1  0
 37 38  1  0
 32 39  1  0
 39 40  1  0
 40 41  2  0
 40 42  1  0
 42 43  1  0
 43 44  1  0
 44 45  1  0
 25 46  2  0
 46 47  1  0
 47 48  2  0
 48 49  1  0
 22 50  1  0
 50 51  2  0
 17  5  1  0
 51 19  1  0
 13  8  1  0
 48 23  1  0
M  END
$$$$
