
     RDKit          2D

 37 42  0  0  0  0  0  0  0  0999 V2000
    3.7500   -1.2990    0.0000 C   0  0  0  0  0  0  0  0  0  0  0  0
    3.0000    0.0000    0.0000 C   0  0  0  0  0  0  0  0  0  0  0  0
    1.5000    0.0000    0.0000 C   0  0  0  0  0  0  0  0  0  0  0  0
    0.7500   -1.2990    0.0000 C   0  0  0  0  0  0  0  0  0  0  0  0
   -0.7500   -1.2990    0.0000 C   0  0  0  0  0  0  0  0  0  0  0  0
   -1.5000    0.0000    0.0000 C   0  0  0  0  0  0  0  0  0  0  0  0
   -3.0000    0.0000    0.0000 C   0  0  0  0  0  0  0  0  0  0  0  0
   -3.7500    1.2990    0.0000 C   0  0  0  0  0  0  0  0  0  0  0  0
   -5.2500    1.2990    0.0000 C   0  0  0  0  0  0  0  0  0  0  0  0
   -3.0000    2.5981    0.0000 C   0  0  0  0  0  0  0  0  0  0  0  0
   -3.7500    3.8971    0.0000 C   0  0  0  0  0  0  0  0  0  0  0  0
   -5.2500    3.8971    0.0000 O   0  0  0  0  0  0  0  0  0  0  0  0
   -3.3366    5.3390    0.0000 O   0  0  0  0  0  0  0  0  0  0  0  0
   -1.5000    2.5981    0.0000 C   0  0  0  0  0  0  0  0  0  0  0  0
   -0.7500    1.2990    0.0000 C   0  0  0  0  0  0  0  0  0  0  0  0
    0.7500    1.2990    0.0000 N   0  0  0  0  0  0  0  0  0  0  0  0
   -2.4508    0.6649    0.0000 N   0  0  0  0  0  0  0  0  0  0  0  0
   -3.8682    1.1559    0.0000 C   0  0  0  0  0  0  0  0  0  0  0  0
   -4.1517    2.6289    0.0000 C   0  0  0  0  0  0  0  0  0  0  0  0
   -3.0178    3.6109    0.0000 C   0  0  0  0  0  0  0  0  0  0  0  0
   -3.3013    5.0838    0.0000 C   0  0  0  0  0  0  0  0  0  0  0  0
   -4.7186    5.5748    0.0000 C   0  0  0  0  0  0  0  0  0  0  0  0
   -5.0021    7.0478    0.0000 C   0  0  0  0  0  0  0  0  0  0  0  0
   -3.8682    8.0298    0.0000 C   0  0  0  0  0  0  0  0  0  0  0  0
   -4.1517    9.5027    0.0000 C   0  0  0  0  0  0  0  0  0  0  0  0
   -5.5690    9.9937    0.0000 C   0  0  0  0  0  0  0  0  0  0  0  0
   -6.7029    9.0118    0.0000 C   0  0  0  0  0  0  0  0  0  0  0  0
   -6.4195    7.5388    0.0000 C   0  0  0  0  0  0  0  0  0  0  0  0
   -7.5534    6.5568    0.0000 C   0  0  0  0  0  0  0  0  0  0  0  0
   -7.4254    5.0623    0.0000 N   0  0  0  0  0  0  0  0  0  0  0  0
   -8.8073    4.4787    0.0000 N   0  0  0  0  0  0  0  0  0  0  0  0
   -9.7892    5.6126    0.0000 N   0  0  0  0  0  0  0  0  0  0  0  0
   -9.0143    6.8970    0.0000 N   0  0  0  0  0  0  0  0  0  0  0  0
   -5.8525    4.5928    0.0000 C   0  0  0  0  0  0  0  0  0  0  0  0
   -5.5690    3.1199    0.0000 C   0  0  0  0  0  0  0  0  0  0  0  0
   -2.1674   -0.8080    0.0000 C   0  0  0  0  0  0  0  0  0  0  0  0
   -3.3013   -1.7900    0.0000 O   0  0  0  0  0  0  0  0  0  0  0  0
  1  2  1  0
  2  3  1  0
  3  4  2  0
  4  5  1  0
  5  6  2  0
  6  7  1  0
  7  8  2  0
  8  9  1  0
  8 10  1  0
 10 11  1  0
 11 12  2  0
 11 13  1  0
 10 14  2  0
 14 15  1  0
 15 16  2  0
 14 17  1  0
 17 18  1  0
 18 19  1  0
 19 20  2  0
 20 21  1  0
 21 22  2  0
 22 23  1  0
 23 24  2  0
 24 25  1  0
 25 26  2  0
 26 27  1  0
 27 28  2  0
 28 29  1  0
 29 30  2  0
 30 31  1  0
 31 32  2  0
 32 33  1  0
 22 34  1  0
 34 35  2  0
 17 36  1  0
 36 37  2  0
 16  3  1  0
 35 19  1  0
 36  5  1  0
 15  6  1  0
 28 23  1  0
 33 29  1  0
M  END
$$$$
