
     RDKit          2D

 42 48  0  0  0  0  0  0  0  0999 V2000
   -4.2839   14.7351    0.0000 C   0  0  0  0  0  0  0  0  0  0  0  0
   -3.4764   13.4710    0.0000 C   0  0  0  0  0  0  0  0  0  0  0  0
   -4.1674   12.1396    0.0000 C   0  0  0  0  0  0  0  0  0  0  0  0
   -3.3599   10.8755    0.0000 C   0  0  0  0  0  0  0  0  0  0  0  0
   -1.8625   10.7858    0.0000 N   0  0  0  0  0  0  0  0  0  0  0  0
   -1.4852    9.3341    0.0000 C   0  0  0  0  0  0  0  0  0  0  0  0
   -0.1538    8.6431    0.0000 C   0  0  0  0  0  0  0  0  0  0  0  0
    1.1103    9.4506    0.0000 C   0  0  0  0  0  0  0  0  0  0  0  0
   -0.0865    7.1446    0.0000 C   0  0  0  0  0  0  0  0  0  0  0  0
   -1.3506    6.3371    0.0000 C   0  0  0  0  0  0  0  0  0  0  0  0
   -1.2833    4.8386    0.0000 C   0  0  0  0  0  0  0  0  0  0  0  0
   -0.0314    4.0122    0.0000 C   0  0  0  0  0  0  0  0  0  0  0  0
   -0.4305    2.5663    0.0000 N   0  0  0  0  0  0  0  0  0  0  0  0
    0.3943    1.2135    0.0000 C   0  0  0  0  0  0  0  0  0  0  0  0
    1.2760    0.0000    0.0000 C   0  0  0  0  0  0  0  0  0  0  0  0
    0.3943   -1.2135    0.0000 C   0  0  0  0  0  0  0  0  0  0  0  0
   -1.0323   -0.7500    0.0000 C   0  0  0  0  0  0  0  0  0  0  0  0
   -2.4116   -0.1605    0.0000 N   0  0  0  0  0  0  0  0  0  0  0  0
   -2.8106    1.2855    0.0000 C   0  0  0  0  0  0  0  0  0  0  0  0
   -4.2865    1.5533    0.0000 O   0  0  0  0  0  0  0  0  0  0  0  0
   -1.9290    2.4990    0.0000 C   0  0  0  0  0  0  0  0  0  0  0  0
   -2.4560    3.9034    0.0000 N   0  0  0  0  0  0  0  0  0  0  0  0
   -1.0323    0.7500    0.0000 N   0  0  0  0  0  0  0  0  0  0  0  0
   -2.6819    7.0280    0.0000 C   0  0  0  0  0  0  0  0  0  0  0  0
   -2.7492    8.5265    0.0000 C   0  0  0  0  0  0  0  0  0  0  0  0
   -3.9079    9.4792    0.0000 N   0  0  0  0  0  0  0  0  0  0  0  0
   -5.3596    9.1018    0.0000 C   0  0  0  0  0  0  0  0  0  0  0  0
   -6.4123   10.1704    0.0000 C   0  0  0  0  0  0  0  0  0  0  0  0
   -6.0133   11.6163    0.0000 C   0  0  0  0  0  0  0  0  0  0  0  0
   -7.0660   12.6849    0.0000 C   0  0  0  0  0  0  0  0  0  0  0  0
   -8.5177   12.3075    0.0000 C   0  0  0  0  0  0  0  0  0  0  0  0
   -9.5704   13.3761    0.0000 C   0  0  0  0  0  0  0  0  0  0  0  0
   -9.1714   14.8220    0.0000 C   0  0  0  0  0  0  0  0  0  0  0  0
  -10.2241   15.8906    0.0000 C   0  0  0  0  0  0  0  0  0  0  0  0
  -11.6758   15.5132    0.0000 C   0  0  0  0  0  0  0  0  0  0  0  0
  -12.0749   14.0673    0.0000 C   0  0  0  0  0  0  0  0  0  0  0  0
  -11.0222   12.9987    0.0000 C   0  0  0  0  0  0  0  0  0  0  0  0
  -11.4212   11.5528    0.0000 C   0  0  0  0  0  0  0  0  0  0  0  0
  -10.3685   10.4842    0.0000 O   0  0  0  0  0  0  0  0  0  0  0  0
  -12.8730   11.1754    0.0000 O   0  0  0  0  0  0  0  0  0  0  0  0
   -8.9168   10.8616    0.0000 C   0  0  0  0  0  0  0  0  0  0  0  0
   -7.8641    9.7930    0.0000 C   0  0  0  0  0  0  0  0  0  0  0  0
  1  2  1  0
  2  3  1  0
  3  4  1  0
  4  5  2  0
  5  6  1  0
  6  7  2  0
  7  8  1  0
  7  9  1  0
  9 10  2  0
 10 11  1  0
 11 12  2  0
 12 13  1  0
 13 14  1  0
 14 15  2  0
 15 16  2  0
 16 17  2  0
 17 18  1  0
 18 19  1  0
 19 20  2  0
 19 21  1  0
 21 22  2  0
 17 23  1  0
 10 24  1  0
 24 25  2  0
 25 26  1  0
 26 27  1  0
 27 28  1  0
 28 29  2  0
 29 30  1  0
 30 31  2  0
 31 32  1  0
 32 33  2  0
 33 34  1  0
 34 35  2  0
 35 36  1  0
 36 37  2  0
 37 38  1  0
 38 39  2  0
 38 40  1  0
 31 41  1  0
 41 42  2  0
 26  4  1  0
 42 28  1  0
 25  6  1  0
 37 32  1  0
 22 11  1  0
 21 13  1  0
 23 14  1  0
M  END
$$$$
