
     RDKit          2D

 40 43  0  0  0  0  0  0  0  0999 V2000
   -0.5706  -12.9098    0.0000 C   0  0  0  0  0  0  0  0  0  0  0  0
    0.8966  -12.5980    0.0000 C   0  0  0  0  0  0  0  0  0  0  0  0
    1.3601  -11.1714    0.0000 C   0  0  0  0  0  0  0  0  0  0  0  0
    2.8273  -10.8595    0.0000 C   0  0  0  0  0  0  0  0  0  0  0  0
    3.2909   -9.4329    0.0000 C   0  0  0  0  0  0  0  0  0  0  0  0
    4.7174   -8.9694    0.0000 N   0  0  0  0  0  0  0  0  0  0  0  0
    4.7174   -7.4694    0.0000 C   0  0  0  0  0  0  0  0  0  0  0  0
    3.2909   -7.0059    0.0000 C   0  0  0  0  0  0  0  0  0  0  0  0
    2.8273   -5.5793    0.0000 C   0  0  0  0  0  0  0  0  0  0  0  0
    3.8310   -4.4646    0.0000 C   0  0  0  0  0  0  0  0  0  0  0  0
    5.3228   -4.6214    0.0000 C   0  0  0  0  0  0  0  0  0  0  0  0
    6.0728   -5.9204    0.0000 O   0  0  0  0  0  0  0  0  0  0  0  0
    5.9329   -3.2511    0.0000 N   0  0  0  0  0  0  0  0  0  0  0  0
    7.4001   -2.9392    0.0000 C   0  0  0  0  0  0  0  0  0  0  0  0
    7.8637   -1.5126    0.0000 C   0  0  0  0  0  0  0  0  0  0  0  0
    9.3309   -1.2007    0.0000 C   0  0  0  0  0  0  0  0  0  0  0  0
    9.7944    0.2258    0.0000 C   0  0  0  0  0  0  0  0  0  0  0  0
    4.8182   -2.2474    0.0000 C   0  0  0  0  0  0  0  0  0  0  0  0
    4.9750   -0.7556    0.0000 O   0  0  0  0  0  0  0  0  0  0  0  0
    3.5192   -2.9974    0.0000 N   0  0  0  0  0  0  0  0  0  0  0  0
    2.1488   -2.3873    0.0000 C   0  0  0  0  0  0  0  0  0  0  0  0
    1.9920   -0.8955    0.0000 C   0  0  0  0  0  0  0  0  0  0  0  0
    0.6217   -0.2854    0.0000 C   0  0  0  0  0  0  0  0  0  0  0  0
    0.4649    1.2064    0.0000 C   0  0  0  0  0  0  0  0  0  0  0  0
    1.6785    2.0881    0.0000 C   0  0  0  0  0  0  0  0  0  0  0  0
    1.5217    3.5799    0.0000 Cl  0  0  0  0  0  0  0  0  0  0  0  0
    3.0488    1.4780    0.0000 C   0  0  0  0  0  0  0  0  0  0  0  0
    3.2056   -0.0138    0.0000 C   0  0  0  0  0  0  0  0  0  0  0  0
    2.4092   -8.2194    0.0000 N   0  0  0  0  0  0  0  0  0  0  0  0
    0.9092   -8.2194    0.0000 C   0  0  0  0  0  0  0  0  0  0  0  0
    0.1592   -6.9204    0.0000 C   0  0  0  0  0  0  0  0  0  0  0  0
   -1.3408   -6.9204    0.0000 C   0  0  0  0  0  0  0  0  0  0  0  0
   -2.0908   -5.6213    0.0000 C   0  0  0  0  0  0  0  0  0  0  0  0
   -1.3408   -4.3223    0.0000 C   0  0  0  0  0  0  0  0  0  0  0  0
   -2.0908   -3.0233    0.0000 C   0  0  0  0  0  0  0  0  0  0  0  0
   -1.3408   -1.7242    0.0000 O   0  0  0  0  0  0  0  0  0  0  0  0
   -3.5908   -3.0233    0.0000 O   0  0  0  0  0  0  0  0  0  0  0  0
   -4.3408   -1.7242    0.0000 C   0  0  0  0  0  0  0  0  0  0  0  0
    0.1592   -4.3223    0.0000 C   0  0  0  0  0  0  0  0  0  0  0  0
    0.9092   -5.6213    0.0000 C   0  0  0  0  0  0  0  0  0  0  0  0
  1  2  1  0
  2  3  1  0
  3  4  1  0
  4  5  1  0
  5  6  2  0
  6  7  1  0
  7  8  2  0
  8  9  1  0
  9 10  2  3
 10 11  1  0
 11 12  2  0
 11 13  1  0
 13 14  1  0
 14 15  1  0
 15 16  1  0
 16 17  1  0
 13 18  1  0
 18 19  2  0
 18 20  1  0
 20 21  1  0
 21 22  1  0
 22 23  2  0
 23 24  1  0
 24 25  2  0
 25 26  1  0
 25 27  1  0
 27 28  2  0
  8 29  1  0
 29 30  1  0
 30 31  1  0
 31 32  2  0
 32 33  1  0
 33 34  2  0
 34 35  1  0
 35 36  2  0
 35 37  1  0
 37 38  1  0
 34 39  1  0
 39 40  2  0
 29  5  1  0
 40 31  1  0
 20 10  1  0
 28 22  1  0
M  END
$$$$
