
     RDKit          2D

 26 28  0  0  0  0  0  0  0  0999 V2000
    2.4772    7.6054    0.0000 C   0  0  0  0  0  0  0  0  0  0  0  0
    2.4423    6.1058    0.0000 O   0  0  0  0  0  0  0  0  0  0  0  0
    1.1261    5.3862    0.0000 C   0  0  0  0  0  0  0  0  0  0  0  0
    0.9347    3.8985    0.0000 C   0  0  0  0  0  0  0  0  0  0  0  0
    2.0257    2.8691    0.0000 C   0  0  0  0  0  0  0  0  0  0  0  0
    1.6798    1.4095    0.0000 C   0  0  0  0  0  0  0  0  0  0  0  0
    3.1773    1.4968    0.0000 C   0  0  0  0  0  0  0  0  0  0  0  0
    4.1280    0.3365    0.0000 N   0  0  0  0  0  0  0  0  0  0  0  0
    5.5253    0.8822    0.0000 N   0  0  0  0  0  0  0  0  0  0  0  0
    6.7880    0.0726    0.0000 C   0  0  0  0  0  0  0  0  0  0  0  0
    6.7182   -1.4258    0.0000 O   0  0  0  0  0  0  0  0  0  0  0  0
    8.1205    0.7614    0.0000 O   0  0  0  0  0  0  0  0  0  0  0  0
    5.4380    2.3797    0.0000 C   0  0  0  0  0  0  0  0  0  0  0  0
    6.5982    3.3304    0.0000 O   0  0  0  0  0  0  0  0  0  0  0  0
    3.9869    2.7595    0.0000 N   0  0  0  0  0  0  0  0  0  0  0  0
    2.1929    0.0000    0.0000 C   0  0  0  0  0  0  0  0  0  0  0  0
    1.6798   -1.4095    0.0000 C   0  0  0  0  0  0  0  0  0  0  0  0
    0.3808   -2.1595    0.0000 C   0  0  0  0  0  0  0  0  0  0  0  0
   -1.0964   -1.8991    0.0000 C   0  0  0  0  0  0  0  0  0  0  0  0
   -2.0606   -0.7500    0.0000 C   0  0  0  0  0  0  0  0  0  0  0  0
   -2.0606    0.7500    0.0000 C   0  0  0  0  0  0  0  0  0  0  0  0
   -1.0964    1.8991    0.0000 C   0  0  0  0  0  0  0  0  0  0  0  0
    0.3808    2.1595    0.0000 C   0  0  0  0  0  0  0  0  0  0  0  0
   -0.5394    3.6208    0.0000 N   0  0  0  0  0  0  0  0  0  0  0  0
   -1.2590    4.9370    0.0000 C   0  0  0  0  0  0  0  0  0  0  0  0
   -0.2296    6.0280    0.0000 N   0  0  0  0  0  0  0  0  0  0  0  0
  1  2  1  0
  2  3  1  0
  3  4  2  0
  4  5  1  0
  5  6  1  0
  6  7  1  0
  7  8  2  0
  8  9  1  0
  9 10  1  0
 10 11  2  0
 10 12  1  0
  9 13  1  0
 13 14  1  0
 13 15  2  0
  6 16  1  0
 16 17  1  0
 17 18  1  0
 18 19  1  0
 19 20  1  0
 20 21  1  0
 21 22  1  0
 22 23  1  0
  4 24  1  0
 24 25  1  0
 25 26  2  0
 26  3  1  0
 23  6  1  0
 15  7  1  0
M  END
$$$$
