
     RDKit          2D

 32 34  0  0  0  0  0  0  0  0999 V2000
    5.3965   -2.9170    0.0000 C   0  0  0  0  0  0  0  0  0  0  0  0
    4.0371   -2.2831    0.0000 C   0  0  0  0  0  0  0  0  0  0  0  0
    3.9063   -0.7888    0.0000 C   0  0  0  0  0  0  0  0  0  0  0  0
    2.8084   -3.1435    0.0000 C   0  0  0  0  0  0  0  0  0  0  0  0
    1.4489   -2.5095    0.0000 C   0  0  0  0  0  0  0  0  0  0  0  0
    1.3182   -4.0038    0.0000 C   0  0  0  0  0  0  0  0  0  0  0  0
    2.5469   -4.8642    0.0000 O   0  0  0  0  0  0  0  0  0  0  0  0
   -0.0413   -4.6378    0.0000 O   0  0  0  0  0  0  0  0  0  0  0  0
   -0.0000   -2.8978    0.0000 C   0  0  0  0  0  0  0  0  0  0  0  0
   -1.4489   -2.5095    0.0000 C   0  0  0  0  0  0  0  0  0  0  0  0
   -2.5095   -1.4489    0.0000 C   0  0  0  0  0  0  0  0  0  0  0  0
   -2.8978    0.0000    0.0000 C   0  0  0  0  0  0  0  0  0  0  0  0
   -2.5095    1.4489    0.0000 C   0  0  0  0  0  0  0  0  0  0  0  0
   -1.4489    2.5095    0.0000 C   0  0  0  0  0  0  0  0  0  0  0  0
    0.0000    2.8978    0.0000 C   0  0  0  0  0  0  0  0  0  0  0  0
    1.4489    2.5095    0.0000 C   0  0  0  0  0  0  0  0  0  0  0  0
    1.0607    1.0607    0.0000 N   0  0  0  0  0  0  0  0  0  0  0  0
    1.4489   -0.3882    0.0000 N   0  0  0  0  0  0  0  0  0  0  0  0
    0.1499   -1.1382    0.0000 C   0  0  0  0  0  0  0  0  0  0  0  0
   -1.1492   -0.3882    0.0000 C   0  0  0  0  0  0  0  0  0  0  0  0
   -1.1492    1.1118    0.0000 N   0  0  0  0  0  0  0  0  0  0  0  0
    0.1499    1.8618    0.0000 C   0  0  0  0  0  0  0  0  0  0  0  0
   -0.0430    2.6352    0.0000 O   0  0  0  0  0  0  0  0  0  0  0  0
   -2.4482   -1.1382    0.0000 C   0  0  0  0  0  0  0  0  0  0  0  0
   -3.7473   -0.3882    0.0000 C   0  0  0  0  0  0  0  0  0  0  0  0
   -5.0463   -1.1382    0.0000 C   0  0  0  0  0  0  0  0  0  0  0  0
   -5.0463   -2.6382    0.0000 C   0  0  0  0  0  0  0  0  0  0  0  0
   -3.7473   -3.3882    0.0000 C   0  0  0  0  0  0  0  0  0  0  0  0
   -2.4482   -2.6382    0.0000 C   0  0  0  0  0  0  0  0  0  0  0  0
    2.5095   -1.4489    0.0000 C   0  0  0  0  0  0  0  0  0  0  0  0
    2.8978    0.0000    0.0000 C   0  0  0  0  0  0  0  0  0  0  0  0
    2.5095    1.4489    0.0000 N   0  0  0  0  0  0  0  0  0  0  0  0
  1  2  1  0
  2  3  1  0
  2  4  1  0
  4  5  1  0
  5  6  1  0
  6  7  2  0
  6  8  1  0
  5  9  1  0
  9 10  1  0
 10 11  1  0
 11 12  1  0
 12 13  1  0
 13 14  1  0
 14 15  1  0
 15 16  1  0
 16 17  2  0
 17 18  1  0
 18 19  1  0
 19 20  1  0
 20 21  2  3
 21 22  1  0
 22 23  2  0
 20 24  1  0
 24 25  2  0
 25 26  1  0
 26 27  2  0
 27 28  1  0
 28 29  2  0
 18 30  1  0
 30 31  2  0
 31 32  2  0
 30  5  1  0
 32 16  1  0
 29 24  1  0
M  END
$$$$
