
     RDKit          2D

 36 40  0  0  0  0  0  0  0  0999 V2000
   -3.0154   -7.9062    0.0000 C   0  0  0  0  0  0  0  0  0  0  0  0
   -1.6789   -7.2252    0.0000 C   0  0  0  0  0  0  0  0  0  0  0  0
   -1.6004   -5.7273    0.0000 C   0  0  0  0  0  0  0  0  0  0  0  0
   -0.2638   -5.0463    0.0000 C   0  0  0  0  0  0  0  0  0  0  0  0
   -0.1853   -3.5483    0.0000 N   0  0  0  0  0  0  0  0  0  0  0  0
    1.1512   -2.8674    0.0000 C   0  0  0  0  0  0  0  0  0  0  0  0
    2.4877   -3.5483    0.0000 N   0  0  0  0  0  0  0  0  0  0  0  0
    2.7223   -5.0299    0.0000 C   0  0  0  0  0  0  0  0  0  0  0  0
    4.1227   -5.5674    0.0000 C   0  0  0  0  0  0  0  0  0  0  0  0
    5.2884   -4.6234    0.0000 C   0  0  0  0  0  0  0  0  0  0  0  0
    6.6888   -5.1610    0.0000 C   0  0  0  0  0  0  0  0  0  0  0  0
    6.9234   -6.6425    0.0000 C   0  0  0  0  0  0  0  0  0  0  0  0
    8.3238   -7.1801    0.0000 C   0  0  0  0  0  0  0  0  0  0  0  0
    9.4895   -6.2361    0.0000 C   0  0  0  0  0  0  0  0  0  0  0  0
   10.8899   -6.7736    0.0000 C   0  0  0  0  0  0  0  0  0  0  0  0
   11.1246   -8.2552    0.0000 C   0  0  0  0  0  0  0  0  0  0  0  0
    9.9588   -9.1992    0.0000 C   0  0  0  0  0  0  0  0  0  0  0  0
    8.5585   -8.6616    0.0000 C   0  0  0  0  0  0  0  0  0  0  0  0
    7.3927   -9.6056    0.0000 C   0  0  0  0  0  0  0  0  0  0  0  0
    5.9439   -9.2174    0.0000 N   0  0  0  0  0  0  0  0  0  0  0  0
    5.1269  -10.4754    0.0000 N   0  0  0  0  0  0  0  0  0  0  0  0
    6.0709  -11.6411    0.0000 N   0  0  0  0  0  0  0  0  0  0  0  0
    7.4712  -11.1035    0.0000 N   0  0  0  0  0  0  0  0  0  0  0  0
    5.7577   -7.5865    0.0000 C   0  0  0  0  0  0  0  0  0  0  0  0
    4.3574   -7.0490    0.0000 C   0  0  0  0  0  0  0  0  0  0  0  0
    3.5483   -2.4877    0.0000 C   0  0  0  0  0  0  0  0  0  0  0  0
    5.0299   -2.7223    0.0000 O   0  0  0  0  0  0  0  0  0  0  0  0
    2.8674   -1.1512    0.0000 C   0  0  0  0  0  0  0  0  0  0  0  0
    1.3858   -1.3858    0.0000 C   0  0  0  0  0  0  0  0  0  0  0  0
    1.9598    0.0000    0.0000 C   0  0  0  0  0  0  0  0  0  0  0  0
    1.3858    1.3858    0.0000 C   0  0  0  0  0  0  0  0  0  0  0  0
    0.0000    1.9598    0.0000 C   0  0  0  0  0  0  0  0  0  0  0  0
   -1.3858    1.3858    0.0000 C   0  0  0  0  0  0  0  0  0  0  0  0
   -1.9598    0.0000    0.0000 C   0  0  0  0  0  0  0  0  0  0  0  0
   -1.3858   -1.3858    0.0000 C   0  0  0  0  0  0  0  0  0  0  0  0
   -0.0000   -1.9598    0.0000 C   0  0  0  0  0  0  0  0  0  0  0  0
  1  2  1  0
  2  3  1  0
  3  4  1  0
  4  5  1  0
  5  6  2  3
  6  7  1  0
  7  8  1  0
  8  9  1  0
  9 10  2  0
 10 11  1  0
 11 12  2  0
 12 13  1  0
 13 14  2  0
 14 15  1  0
 15 16  2  0
 16 17  1  0
 17 18  2  0
 18 19  1  0
 19 20  2  0
 20 21  1  0
 21 22  2  0
 22 23  1  0
 12 24  1  0
 24 25  2  0
  7 26  1  0
 26 27  2  0
 26 28  1  0
 28 29  1  0
 29 30  1  0
 30 31  1  0
 31 32  1  0
 32 33  1  0
 33 34  1  0
 34 35  1  0
 35 36  1  0
 29  6  1  0
 25  9  1  0
 36 29  1  0
 18 13  1  0
 23 19  1  0
M  END
$$$$
