
     RDKit          2D

 45 51  0  0  0  0  0  0  0  0999 V2000
  -10.6366    2.6883    0.0000 C   0  0  0  0  0  0  0  0  0  0  0  0
  -10.4408    1.2011    0.0000 C   0  0  0  0  0  0  0  0  0  0  0  0
   -9.0550    0.6271    0.0000 C   0  0  0  0  0  0  0  0  0  0  0  0
   -7.7760    1.4109    0.0000 C   0  0  0  0  0  0  0  0  0  0  0  0
   -6.6354    0.4367    0.0000 C   0  0  0  0  0  0  0  0  0  0  0  0
   -7.2094   -0.9491    0.0000 C   0  0  0  0  0  0  0  0  0  0  0  0
   -8.7048   -0.8315    0.0000 S   0  0  0  0  0  0  0  0  0  0  0  0
   -6.2963   -2.1392    0.0000 N   0  0  0  0  0  0  0  0  0  0  0  0
   -6.8703   -3.5250    0.0000 C   0  0  0  0  0  0  0  0  0  0  0  0
   -5.9572   -4.7150    0.0000 C   0  0  0  0  0  0  0  0  0  0  0  0
   -4.4700   -4.5192    0.0000 C   0  0  0  0  0  0  0  0  0  0  0  0
   -3.5569   -5.7093    0.0000 C   0  0  0  0  0  0  0  0  0  0  0  0
   -4.1309   -7.0951    0.0000 C   0  0  0  0  0  0  0  0  0  0  0  0
   -3.2177   -8.2851    0.0000 C   0  0  0  0  0  0  0  0  0  0  0  0
   -1.7306   -8.0893    0.0000 C   0  0  0  0  0  0  0  0  0  0  0  0
   -0.8174   -9.2793    0.0000 C   0  0  0  0  0  0  0  0  0  0  0  0
   -1.3915  -10.6652    0.0000 C   0  0  0  0  0  0  0  0  0  0  0  0
   -2.8786  -10.8610    0.0000 C   0  0  0  0  0  0  0  0  0  0  0  0
   -3.7918   -9.6709    0.0000 C   0  0  0  0  0  0  0  0  0  0  0  0
   -5.2789   -9.8667    0.0000 C   0  0  0  0  0  0  0  0  0  0  0  0
   -6.3115   -8.7787    0.0000 N   0  0  0  0  0  0  0  0  0  0  0  0
   -7.6653   -9.4244    0.0000 C   0  0  0  0  0  0  0  0  0  0  0  0
   -8.9836   -8.7087    0.0000 C   0  0  0  0  0  0  0  0  0  0  0  0
  -10.2625   -9.4924    0.0000 C   0  0  0  0  0  0  0  0  0  0  0  0
   -7.4696  -10.9116    0.0000 N   0  0  0  0  0  0  0  0  0  0  0  0
   -5.9947  -11.1849    0.0000 N   0  0  0  0  0  0  0  0  0  0  0  0
   -5.6181   -7.2909    0.0000 C   0  0  0  0  0  0  0  0  0  0  0  0
   -6.5312   -6.1008    0.0000 C   0  0  0  0  0  0  0  0  0  0  0  0
   -8.0184   -6.2966    0.0000 C   0  0  0  0  0  0  0  0  0  0  0  0
   -4.8091   -1.9434    0.0000 C   0  0  0  0  0  0  0  0  0  0  0  0
   -3.8960   -3.1334    0.0000 O   0  0  0  0  0  0  0  0  0  0  0  0
   -4.2351   -0.5576    0.0000 N   0  0  0  0  0  0  0  0  0  0  0  0
   -2.7479   -0.3618    0.0000 C   0  0  0  0  0  0  0  0  0  0  0  0
   -1.9979   -1.6608    0.0000 N   0  0  0  0  0  0  0  0  0  0  0  0
   -0.5490   -2.0490    0.0000 C   0  0  0  0  0  0  0  0  0  0  0  0
   -0.3532   -3.5362    0.0000 O   0  0  0  0  0  0  0  0  0  0  0  0
    0.7500   -1.2990    0.0000 N   0  0  0  0  0  0  0  0  0  0  0  0
    1.5000    0.0000    0.0000 C   0  0  0  0  0  0  0  0  0  0  0  0
    0.7500    1.2990    0.0000 C   0  0  0  0  0  0  0  0  0  0  0  0
   -0.7500    1.2990    0.0000 C   0  0  0  0  0  0  0  0  0  0  0  0
   -2.3597    1.0871    0.0000 C   0  0  0  0  0  0  0  0  0  0  0  0
   -1.5000    0.0000    0.0000 C   0  0  0  0  0  0  0  0  0  0  0  0
   -0.7500   -1.2990    0.0000 C   0  0  0  0  0  0  0  0  0  0  0  0
   -5.1482    0.6325    0.0000 C   0  0  0  0  0  0  0  0  0  0  0  0
   -4.5742    2.0183    0.0000 O   0  0  0  0  0  0  0  0  0  0  0  0
  1  2  1  0
  2  3  1  0
  3  4  2  0
  4  5  1  0
  5  6  2  0
  6  7  1  0
  6  8  1  0
  8  9  1  0
  9 10  1  0
 10 11  2  0
 11 12  1  0
 12 13  2  0
 13 14  1  0
 14 15  2  0
 15 16  1  0
 16 17  2  0
 17 18  1  0
 18 19  2  0
 19 20  1  0
 20 21  2  0
 21 22  1  0
 22 23  1  0
 23 24  1  0
 22 25  2  0
 25 26  1  0
 13 27  1  0
 27 28  2  0
 28 29  1  0
  8 30  1  0
 30 31  2  0
 30 32  1  0
 32 33  1  0
 33 34  2  3
 34 35  1  0
 35 36  2  0
 35 37  1  0
 37 38  1  0
 38 39  1  0
 39 40  1  0
 40 41  2  0
 40 42  1  0
 42 43  1  0
 32 44  1  0
 44 45  2  0
  7  3  1  0
 28 10  1  0
 41 33  1  0
 44  5  1  0
 19 14  1  0
 26 20  1  0
 43 37  1  0
M  END
$$$$
