
     RDKit          2D

 80 88  0  0  0  0  0  0  0  0999 V2000
    7.6827   -5.4151    0.0000 C   0  0  0  0  0  0  0  0  0  0  0  0
    7.1370   -4.0179    0.0000 O   0  0  0  0  0  0  0  0  0  0  0  0
    8.0742   -2.8467    0.0000 C   0  0  0  0  0  0  0  0  0  0  0  0
    7.5285   -1.4495    0.0000 C   0  0  0  0  0  0  0  0  0  0  0  0
    8.4657   -0.2783    0.0000 C   0  0  0  0  0  0  0  0  0  0  0  0
    7.9200    1.1189    0.0000 C   0  0  0  0  0  0  0  0  0  0  0  0
    8.8572    2.2901    0.0000 C   0  0  0  0  0  0  0  0  0  0  0  0
    8.3115    3.6873    0.0000 C   0  0  0  0  0  0  0  0  0  0  0  0
    6.8286    3.9133    0.0000 C   0  0  0  0  0  0  0  0  0  0  0  0
    5.8914    2.7421    0.0000 C   0  0  0  0  0  0  0  0  0  0  0  0
    6.4371    1.3449    0.0000 C   0  0  0  0  0  0  0  0  0  0  0  0
    5.4999    0.1737    0.0000 N   0  0  0  0  0  0  0  0  0  0  0  0
    5.8966   -1.2729    0.0000 C   0  0  0  0  0  0  0  0  0  0  0  0
    4.6433   -2.0971    0.0000 N   0  0  0  0  0  0  0  0  0  0  0  0
    3.4722   -1.1599    0.0000 C   0  0  0  0  0  0  0  0  0  0  0  0
    2.0255   -1.5566    0.0000 C   0  0  0  0  0  0  0  0  0  0  0  0
    0.9587   -0.5021    0.0000 C   0  0  0  0  0  0  0  0  0  0  0  0
   -0.4879   -0.8988    0.0000 C   0  0  0  0  0  0  0  0  0  0  0  0
   -0.8677   -2.3499    0.0000 C   0  0  0  0  0  0  0  0  0  0  0  0
    0.1991   -3.4044    0.0000 C   0  0  0  0  0  0  0  0  0  0  0  0
    1.6458   -3.0077    0.0000 C   0  0  0  0  0  0  0  0  0  0  0  0
    4.0015    0.2435    0.0000 C   0  0  0  0  0  0  0  0  0  0  0  0
    3.1773    1.4968    0.0000 C   0  0  0  0  0  0  0  0  0  0  0  0
    4.1548    2.6345    0.0000 O   0  0  0  0  0  0  0  0  0  0  0  0
    1.6798    1.4095    0.0000 C   0  0  0  0  0  0  0  0  0  0  0  0
    2.0257    2.8691    0.0000 C   0  0  0  0  0  0  0  0  0  0  0  0
    1.0483    4.0069    0.0000 N   0  0  0  0  0  0  0  0  0  0  0  0
    1.8283    5.2881    0.0000 N   0  0  0  0  0  0  0  0  0  0  0  0
    3.2879    4.9422    0.0000 C   0  0  0  0  0  0  0  0  0  0  0  0
    3.4099    3.4472    0.0000 N   0  0  0  0  0  0  0  0  0  0  0  0
    2.1929    0.0000    0.0000 C   0  0  0  0  0  0  0  0  0  0  0  0
    1.6798   -1.4095    0.0000 C   0  0  0  0  0  0  0  0  0  0  0  0
    0.3808   -2.1595    0.0000 C   0  0  0  0  0  0  0  0  0  0  0  0
    0.2761   -3.6559    0.0000 O   0  0  0  0  0  0  0  0  0  0  0  0
   -1.0964   -1.8991    0.0000 C   0  0  0  0  0  0  0  0  0  0  0  0
   -2.0606   -0.7500    0.0000 C   0  0  0  0  0  0  0  0  0  0  0  0
   -2.0606    0.7500    0.0000 C   0  0  0  0  0  0  0  0  0  0  0  0
   -3.4701    1.2630    0.0000 N   0  0  0  0  0  0  0  0  0  0  0  0
   -4.6192    0.2988    0.0000 O   0  0  0  0  0  0  0  0  0  0  0  0
   -3.7306    2.7402    0.0000 N   0  0  0  0  0  0  0  0  0  0  0  0
   -5.1402    3.2533    0.0000 C   0  0  0  0  0  0  0  0  0  0  0  0
   -5.4006    4.7305    0.0000 C   0  0  0  0  0  0  0  0  0  0  0  0
   -6.8102    5.2435    0.0000 C   0  0  0  0  0  0  0  0  0  0  0  0
   -7.0706    6.7207    0.0000 N   0  0  0  0  0  0  0  0  0  0  0  0
   -8.4802    7.2338    0.0000 N   0  0  0  0  0  0  0  0  0  0  0  0
   -8.7407    8.7110    0.0000 C   0  0  0  0  0  0  0  0  0  0  0  0
  -10.1502    9.2240    0.0000 C   0  0  0  0  0  0  0  0  0  0  0  0
  -10.4107   10.7012    0.0000 C   0  0  0  0  0  0  0  0  0  0  0  0
  -11.8202   11.2142    0.0000 C   0  0  0  0  0  0  0  0  0  0  0  0
  -12.9693   10.2501    0.0000 C   0  0  0  0  0  0  0  0  0  0  0  0
  -12.7088    8.7728    0.0000 C   0  0  0  0  0  0  0  0  0  0  0  0
  -11.2993    8.2598    0.0000 C   0  0  0  0  0  0  0  0  0  0  0  0
   -5.9216    7.6849    0.0000 N   0  0  0  0  0  0  0  0  0  0  0  0
   -4.5120    7.1719    0.0000 O   0  0  0  0  0  0  0  0  0  0  0  0
   -3.3630    8.1361    0.0000 C   0  0  0  0  0  0  0  0  0  0  0  0
   -1.9534    7.6230    0.0000 C   0  0  0  0  0  0  0  0  0  0  0  0
   -0.8044    8.5872    0.0000 C   0  0  0  0  0  0  0  0  0  0  0  0
   -1.0648   10.0644    0.0000 C   0  0  0  0  0  0  0  0  0  0  0  0
   -2.4744   10.5775    0.0000 C   0  0  0  0  0  0  0  0  0  0  0  0
   -3.6234    9.6133    0.0000 C   0  0  0  0  0  0  0  0  0  0  0  0
   -6.1820    9.1621    0.0000 N   0  0  0  0  0  0  0  0  0  0  0  0
   -7.5916    9.6751    0.0000 O   0  0  0  0  0  0  0  0  0  0  0  0
   -7.8521   11.1524    0.0000 C   0  0  0  0  0  0  0  0  0  0  0  0
   -6.8291   12.2494    0.0000 O   0  0  0  0  0  0  0  0  0  0  0  0
   -9.2616   11.6654    0.0000 O   0  0  0  0  0  0  0  0  0  0  0  0
   -5.0330   10.1263    0.0000 O   0  0  0  0  0  0  0  0  0  0  0  0
   -5.2935   11.6035    0.0000 C   0  0  0  0  0  0  0  0  0  0  0  0
   -6.6299   12.2845    0.0000 O   0  0  0  0  0  0  0  0  0  0  0  0
   -4.1444   12.5677    0.0000 C   0  0  0  0  0  0  0  0  0  0  0  0
   -2.7348   12.0547    0.0000 C   0  0  0  0  0  0  0  0  0  0  0  0
   -1.5858   13.0188    0.0000 C   0  0  0  0  0  0  0  0  0  0  0  0
   -1.8463   14.4961    0.0000 C   0  0  0  0  0  0  0  0  0  0  0  0
   -3.2558   15.0091    0.0000 C   0  0  0  0  0  0  0  0  0  0  0  0
   -4.4049   14.0449    0.0000 C   0  0  0  0  0  0  0  0  0  0  0  0
   -1.0964    1.8991    0.0000 C   0  0  0  0  0  0  0  0  0  0  0  0
   -1.8464    3.1981    0.0000 O   0  0  0  0  0  0  0  0  0  0  0  0
    0.3808    2.1595    0.0000 C   0  0  0  0  0  0  0  0  0  0  0  0
    9.9485   -0.5043    0.0000 C   0  0  0  0  0  0  0  0  0  0  0  0
   10.4942   -1.9016    0.0000 C   0  0  0  0  0  0  0  0  0  0  0  0
    9.5570   -3.0728    0.0000 C   0  0  0  0  0  0  0  0  0  0  0  0
  1  2  1  0
  2  3  1  0
  3  4  2  0
  4  5  1  0
  5  6  1  0
  6  7  2  0
  7  8  1  0
  8  9  2  0
  9 10  1  0
 10 11  2  0
 11 12  1  0
 12 13  1  0
 13 14  2  0
 14 15  1  0
 15 16  1  0
 16 17  2  0
 17 18  1  0
 18 19  2  0
 19 20  1  0
 20 21  2  0
 15 22  2  0
 22 23  1  0
 23 24  2  0
 23 25  1  0
 25 26  1  0
 26 27  2  0
 27 28  1  0
 28 29  2  0
 29 30  2  0
 25 31  1  0
 31 32  1  0
 32 33  1  0
 33 34  2  0
 33 35  1  0
 35 36  1  0
 36 37  1  0
 37 38  1  0
 38 39  1  0
 38 40  1  0
 40 41  1  0
 41 42  1  0
 42 43  1  0
 43 44  1  0
 44 45  1  0
 45 46  1  0
 46 47  1  0
 47 48  2  0
 48 49  1  0
 49 50  2  0
 50 51  1  0
 51 52  2  0
 44 53  1  0
 53 54  1  0
 54 55  1  0
 55 56  2  0
 56 57  1  0
 57 58  2  0
 58 59  1  0
 59 60  2  0
 53 61  1  0
 61 62  1  0
 62 63  1  0
 63 64  2  0
 63 65  1  0
 61 66  1  0
 66 67  1  0
 67 68  2  0
 67 69  1  0
 69 70  2  0
 70 71  1  0
 71 72  2  0
 72 73  1  0
 73 74  2  0
 37 75  1  0
 75 76  1  0
 75 77  1  0
  5 78  2  0
 78 79  1  0
 79 80  2  0
 80  3  1  0
 11  6  1  0
 22 12  1  0
 77 25  1  0
 21 16  1  0
 30 26  1  0
 52 47  1  0
 60 55  1  0
 74 69  1  0
M  END
$$$$
