
     RDKit          2D

 36 38  0  0  0  0  0  0  0  0999 V2000
    8.5257   -0.9459    0.0000 C   0  0  0  0  0  0  0  0  0  0  0  0
    7.5054    0.1536    0.0000 C   0  0  0  0  0  0  0  0  0  0  0  0
    6.0430   -0.1801    0.0000 C   0  0  0  0  0  0  0  0  0  0  0  0
    5.0228    0.9194    0.0000 C   0  0  0  0  0  0  0  0  0  0  0  0
    3.5604    0.5857    0.0000 C   0  0  0  0  0  0  0  0  0  0  0  0
    3.1183   -0.8477    0.0000 O   0  0  0  0  0  0  0  0  0  0  0  0
    2.5401    1.6852    0.0000 N   0  0  0  0  0  0  0  0  0  0  0  0
    2.9823    3.1186    0.0000 C   0  0  0  0  0  0  0  0  0  0  0  0
    4.4447    3.4524    0.0000 C   0  0  0  0  0  0  0  0  0  0  0  0
    5.4649    2.3528    0.0000 C   0  0  0  0  0  0  0  0  0  0  0  0
    6.9273    2.6866    0.0000 C   0  0  0  0  0  0  0  0  0  0  0  0
    7.3694    4.1199    0.0000 C   0  0  0  0  0  0  0  0  0  0  0  0
    8.8318    4.4537    0.0000 C   0  0  0  0  0  0  0  0  0  0  0  0
    9.8521    3.3541    0.0000 C   0  0  0  0  0  0  0  0  0  0  0  0
   11.3145    3.6879    0.0000 C   0  0  0  0  0  0  0  0  0  0  0  0
   11.7566    5.1213    0.0000 C   0  0  0  0  0  0  0  0  0  0  0  0
   10.7364    6.2209    0.0000 C   0  0  0  0  0  0  0  0  0  0  0  0
    9.2740    5.8871    0.0000 C   0  0  0  0  0  0  0  0  0  0  0  0
    8.2537    6.9867    0.0000 C   0  0  0  0  0  0  0  0  0  0  0  0
    6.7913    6.6529    0.0000 O   0  0  0  0  0  0  0  0  0  0  0  0
    8.6958    8.4200    0.0000 O   0  0  0  0  0  0  0  0  0  0  0  0
    6.3492    5.2195    0.0000 C   0  0  0  0  0  0  0  0  0  0  0  0
    4.8868    4.8857    0.0000 C   0  0  0  0  0  0  0  0  0  0  0  0
    1.0777    1.3515    0.0000 C   0  0  0  0  0  0  0  0  0  0  0  0
    1.0777    2.8515    0.0000 C   0  0  0  0  0  0  0  0  0  0  0  0
   -0.1202    3.7542    0.0000 O   0  0  0  0  0  0  0  0  0  0  0  0
    2.3768    3.6015    0.0000 C   0  0  0  0  0  0  0  0  0  0  0  0
    2.3768    5.1015    0.0000 C   0  0  0  0  0  0  0  0  0  0  0  0
    3.6758    2.8515    0.0000 C   0  0  0  0  0  0  0  0  0  0  0  0
    1.7286    0.0000    0.0000 C   0  0  0  0  0  0  0  0  0  0  0  0
    1.0777   -1.3515    0.0000 C   0  0  0  0  0  0  0  0  0  0  0  0
   -0.3846   -1.6852    0.0000 C   0  0  0  0  0  0  0  0  0  0  0  0
   -1.5574   -0.7500    0.0000 O   0  0  0  0  0  0  0  0  0  0  0  0
   -1.5574    0.7500    0.0000 C   0  0  0  0  0  0  0  0  0  0  0  0
   -0.3846    1.6852    0.0000 C   0  0  0  0  0  0  0  0  0  0  0  0
   -0.8942    3.0960    0.0000 O   0  0  0  0  0  0  0  0  0  0  0  0
  1  2  1  0
  2  3  1  0
  3  4  1  0
  4  5  1  0
  5  6  2  0
  5  7  1  0
  7  8  1  0
  8  9  1  0
  9 10  2  0
 10 11  1  0
 11 12  2  0
 12 13  1  0
 13 14  2  0
 14 15  1  0
 15 16  2  0
 16 17  1  0
 17 18  2  0
 18 19  1  0
 19 20  2  0
 19 21  1  0
 12 22  1  0
 22 23  2  0
  7 24  1  0
 24 25  1  0
 25 26  2  0
 25 27  1  0
 27 28  1  0
 27 29  1  0
 24 30  1  0
 30 31  1  0
 31 32  1  0
 32 33  1  0
 33 34  1  0
 34 35  1  0
 35 36  2  0
 23  9  1  0
 35 24  1  0
 18 13  1  0
M  END
$$$$
