
     RDKit          2D

 51 55  0  0  0  0  0  0  0  0999 V2000
   12.2204   -1.5808    0.0000 C   0  0  0  0  0  0  0  0  0  0  0  0
   10.7241   -1.6855    0.0000 C   0  0  0  0  0  0  0  0  0  0  0  0
    9.8853   -0.4419    0.0000 C   0  0  0  0  0  0  0  0  0  0  0  0
    8.3889   -0.5465    0.0000 C   0  0  0  0  0  0  0  0  0  0  0  0
    7.4247    0.6025    0.0000 N   0  0  0  0  0  0  0  0  0  0  0  0
    6.0340    0.0406    0.0000 C   0  0  0  0  0  0  0  0  0  0  0  0
    4.7619    0.8355    0.0000 C   0  0  0  0  0  0  0  0  0  0  0  0
    4.8142    2.3346    0.0000 C   0  0  0  0  0  0  0  0  0  0  0  0
    6.1386   -1.4557    0.0000 C   0  0  0  0  0  0  0  0  0  0  0  0
    4.9895   -2.4199    0.0000 C   0  0  0  0  0  0  0  0  0  0  0  0
    3.6530   -1.7389    0.0000 O   0  0  0  0  0  0  0  0  0  0  0  0
    5.2500   -3.8971    0.0000 C   0  0  0  0  0  0  0  0  0  0  0  0
    3.7500   -3.8971    0.0000 C   0  0  0  0  0  0  0  0  0  0  0  0
    2.8472   -2.6992    0.0000 O   0  0  0  0  0  0  0  0  0  0  0  0
    3.0000   -5.1962    0.0000 N   0  0  0  0  0  0  0  0  0  0  0  0
    1.5000   -5.1962    0.0000 C   0  0  0  0  0  0  0  0  0  0  0  0
    0.7500   -3.8971    0.0000 C   0  0  0  0  0  0  0  0  0  0  0  0
   -0.7500   -3.8971    0.0000 O   0  0  0  0  0  0  0  0  0  0  0  0
    1.5000   -2.5981    0.0000 O   0  0  0  0  0  0  0  0  0  0  0  0
    0.7500   -1.2990    0.0000 C   0  0  0  0  0  0  0  0  0  0  0  0
    2.0490   -0.5490    0.0000 C   0  0  0  0  0  0  0  0  0  0  0  0
   -0.5490   -2.0490    0.0000 C   0  0  0  0  0  0  0  0  0  0  0  0
   -0.0000   -0.0000    0.0000 C   0  0  0  0  0  0  0  0  0  0  0  0
    0.7500   -6.4952    0.0000 C   0  0  0  0  0  0  0  0  0  0  0  0
    1.5000   -7.7942    0.0000 C   0  0  0  0  0  0  0  0  0  0  0  0
    0.7500   -9.0933    0.0000 C   0  0  0  0  0  0  0  0  0  0  0  0
   -0.7500   -9.0933    0.0000 C   0  0  0  0  0  0  0  0  0  0  0  0
   -1.5000  -10.3923    0.0000 O   0  0  0  0  0  0  0  0  0  0  0  0
   -0.7500  -11.6913    0.0000 C   0  0  0  0  0  0  0  0  0  0  0  0
   -1.5000  -12.9904    0.0000 C   0  0  0  0  0  0  0  0  0  0  0  0
   -1.5000   -7.7942    0.0000 C   0  0  0  0  0  0  0  0  0  0  0  0
   -0.7500   -6.4952    0.0000 C   0  0  0  0  0  0  0  0  0  0  0  0
    4.9895   -5.3743    0.0000 C   0  0  0  0  0  0  0  0  0  0  0  0
    6.1386   -6.3385    0.0000 C   0  0  0  0  0  0  0  0  0  0  0  0
    7.5481   -5.8255    0.0000 C   0  0  0  0  0  0  0  0  0  0  0  0
    7.8086   -4.3483    0.0000 C   0  0  0  0  0  0  0  0  0  0  0  0
    6.6595   -3.3841    0.0000 C   0  0  0  0  0  0  0  0  0  0  0  0
    7.5940   -1.8186    0.0000 N   0  0  0  0  0  0  0  0  0  0  0  0
    8.1559   -3.2094    0.0000 C   0  0  0  0  0  0  0  0  0  0  0  0
    9.6413   -3.4181    0.0000 C   0  0  0  0  0  0  0  0  0  0  0  0
   10.2033   -4.8089    0.0000 C   0  0  0  0  0  0  0  0  0  0  0  0
   11.6887   -5.0177    0.0000 C   0  0  0  0  0  0  0  0  0  0  0  0
   12.6122   -3.8357    0.0000 C   0  0  0  0  0  0  0  0  0  0  0  0
   14.0976   -4.0444    0.0000 C   0  0  0  0  0  0  0  0  0  0  0  0
   14.6595   -5.4352    0.0000 C   0  0  0  0  0  0  0  0  0  0  0  0
   16.1449   -5.6440    0.0000 C   0  0  0  0  0  0  0  0  0  0  0  0
   17.0684   -4.4619    0.0000 C   0  0  0  0  0  0  0  0  0  0  0  0
   16.5065   -3.0712    0.0000 C   0  0  0  0  0  0  0  0  0  0  0  0
   15.0210   -2.8624    0.0000 C   0  0  0  0  0  0  0  0  0  0  0  0
   12.0502   -2.4449    0.0000 C   0  0  0  0  0  0  0  0  0  0  0  0
   10.5648   -2.2361    0.0000 C   0  0  0  0  0  0  0  0  0  0  0  0
  1  2  1  0
  2  3  1  0
  3  4  1  0
  4  5  2  0
  5  6  1  0
  6  7  1  0
  7  8  1  0
  6  9  2  0
  9 10  1  0
 10 11  2  0
 10 12  1  0
 12 13  1  0
 13 14  2  0
 13 15  1  0
 15 16  1  0
 16 17  1  0
 17 18  2  0
 17 19  1  0
 19 20  1  0
 20 21  1  0
 20 22  1  0
 20 23  1  0
 16 24  1  0
 24 25  2  0
 25 26  1  0
 26 27  2  0
 27 28  1  0
 28 29  1  0
 29 30  1  0
 27 31  1  0
 31 32  2  0
 12 33  1  0
 33 34  1  0
 34 35  1  0
 35 36  1  0
 36 37  1  0
  9 38  1  0
 38 39  1  0
 39 40  1  0
 40 41  2  0
 41 42  1  0
 42 43  2  0
 43 44  1  0
 44 45  2  0
 45 46  1  0
 46 47  2  0
 47 48  1  0
 48 49  2  0
 43 50  1  0
 50 51  2  0
 38  4  1  0
 51 40  1  0
 37 12  1  0
 49 44  1  0
 32 24  1  0
M  END
$$$$
