
     RDKit          2D

 37 40  0  0  0  0  0  0  0  0999 V2000
    4.3456    8.7337    0.0000 C   0  0  0  0  0  0  0  0  0  0  0  0
    4.6061    7.2565    0.0000 C   0  0  0  0  0  0  0  0  0  0  0  0
    3.4570    6.2923    0.0000 C   0  0  0  0  0  0  0  0  0  0  0  0
    3.7175    4.8151    0.0000 N   0  0  0  0  0  0  0  0  0  0  0  0
    2.5684    3.8509    0.0000 C   0  0  0  0  0  0  0  0  0  0  0  0
    1.1589    4.3640    0.0000 O   0  0  0  0  0  0  0  0  0  0  0  0
    2.8289    2.3737    0.0000 C   0  0  0  0  0  0  0  0  0  0  0  0
    4.2384    1.8607    0.0000 C   0  0  0  0  0  0  0  0  0  0  0  0
    1.6798    1.4095    0.0000 C   0  0  0  0  0  0  0  0  0  0  0  0
    2.1929    0.0000    0.0000 C   0  0  0  0  0  0  0  0  0  0  0  0
    1.6798   -1.4095    0.0000 C   0  0  0  0  0  0  0  0  0  0  0  0
    0.3808   -2.1595    0.0000 C   0  0  0  0  0  0  0  0  0  0  0  0
   -1.0964   -1.8991    0.0000 C   0  0  0  0  0  0  0  0  0  0  0  0
   -2.0606   -0.7500    0.0000 C   0  0  0  0  0  0  0  0  0  0  0  0
   -2.0606    0.7500    0.0000 C   0  0  0  0  0  0  0  0  0  0  0  0
   -1.0964    1.8991    0.0000 C   0  0  0  0  0  0  0  0  0  0  0  0
    0.3808    2.1595    0.0000 C   0  0  0  0  0  0  0  0  0  0  0  0
    5.1270    4.3021    0.0000 C   0  0  0  0  0  0  0  0  0  0  0  0
    5.3875    2.8249    0.0000 C   0  0  0  0  0  0  0  0  0  0  0  0
    6.7970    2.3118    0.0000 C   0  0  0  0  0  0  0  0  0  0  0  0
    7.9461    3.2760    0.0000 C   0  0  0  0  0  0  0  0  0  0  0  0
    9.3556    2.7630    0.0000 C   0  0  0  0  0  0  0  0  0  0  0  0
    9.6161    1.2858    0.0000 N   0  0  0  0  0  0  0  0  0  0  0  0
    8.5741    0.2068    0.0000 C   0  0  0  0  0  0  0  0  0  0  0  0
    7.0887    0.4155    0.0000 C   0  0  0  0  0  0  0  0  0  0  0  0
    6.1652   -0.7665    0.0000 C   0  0  0  0  0  0  0  0  0  0  0  0
    9.2783   -1.1177    0.0000 N   0  0  0  0  0  0  0  0  0  0  0  0
   10.7555   -0.8572    0.0000 C   0  0  0  0  0  0  0  0  0  0  0  0
   11.9376   -1.7807    0.0000 C   0  0  0  0  0  0  0  0  0  0  0  0
   11.7288   -3.2661    0.0000 C   0  0  0  0  0  0  0  0  0  0  0  0
   13.3283   -1.2188    0.0000 C   0  0  0  0  0  0  0  0  0  0  0  0
   13.5371    0.2666    0.0000 C   0  0  0  0  0  0  0  0  0  0  0  0
   14.9279    0.8286    0.0000 C   0  0  0  0  0  0  0  0  0  0  0  0
   12.3551    1.1901    0.0000 N   0  0  0  0  0  0  0  0  0  0  0  0
   10.9643    0.6282    0.0000 C   0  0  0  0  0  0  0  0  0  0  0  0
    7.6856    4.7532    0.0000 C   0  0  0  0  0  0  0  0  0  0  0  0
    6.2761    5.2663    0.0000 C   0  0  0  0  0  0  0  0  0  0  0  0
  1  2  2  0
  2  3  1  0
  3  4  1  0
  4  5  1  0
  5  6  2  0
  5  7  1  0
  7  8  1  0
  7  9  2  0
  9 10  1  0
 10 11  2  3
 11 12  1  0
 12 13  2  3
 13 14  1  0
 14 15  2  3
 15 16  1  0
 16 17  2  3
  4 18  1  0
 18 19  2  0
 19 20  1  0
 20 21  2  0
 21 22  1  0
 22 23  1  0
 23 24  1  0
 24 25  1  0
 25 26  1  0
 24 27  2  0
 27 28  1  0
 28 29  2  0
 29 30  1  0
 29 31  1  0
 31 32  2  0
 32 33  1  0
 32 34  1  0
 34 35  2  0
 21 36  1  0
 36 37  2  0
 17  9  1  0
 37 18  1  0
 35 23  1  0
 35 28  1  0
M  END
$$$$
