
     RDKit          2D

 83 92  0  0  0  0  0  0  0  0999 V2000
   16.7447    3.7787    0.0000 C   0  0  0  0  0  0  0  0  0  0  0  0
   15.3484    4.3268    0.0000 C   0  0  0  0  0  0  0  0  0  0  0  0
   14.1756    3.3915    0.0000 C   0  0  0  0  0  0  0  0  0  0  0  0
   14.2429    1.8930    0.0000 C   0  0  0  0  0  0  0  0  0  0  0  0
   12.8386    1.3660    0.0000 C   0  0  0  0  0  0  0  0  0  0  0  0
   11.9034    2.5387    0.0000 C   0  0  0  0  0  0  0  0  0  0  0  0
   12.7297    3.7906    0.0000 S   0  0  0  0  0  0  0  0  0  0  0  0
   10.4201    2.3152    0.0000 N   0  0  0  0  0  0  0  0  0  0  0  0
    9.5751    3.5545    0.0000 C   0  0  0  0  0  0  0  0  0  0  0  0
    8.4024    4.4897    0.0000 C   0  0  0  0  0  0  0  0  0  0  0  0
    7.0061    5.0378    0.0000 C   0  0  0  0  0  0  0  0  0  0  0  0
    5.5103    5.1499    0.0000 C   0  0  0  0  0  0  0  0  0  0  0  0
    4.0479    4.8161    0.0000 C   0  0  0  0  0  0  0  0  0  0  0  0
    5.4442    4.2681    0.0000 C   0  0  0  0  0  0  0  0  0  0  0  0
    6.9400    4.1560    0.0000 C   0  0  0  0  0  0  0  0  0  0  0  0
    7.0521    2.6602    0.0000 O   0  0  0  0  0  0  0  0  0  0  0  0
    5.8127    1.8152    0.0000 C   0  0  0  0  0  0  0  0  0  0  0  0
    4.4613    2.4660    0.0000 O   0  0  0  0  0  0  0  0  0  0  0  0
    5.9248    0.3194    0.0000 O   0  0  0  0  0  0  0  0  0  0  0  0
    2.7488    4.0661    0.0000 C   0  0  0  0  0  0  0  0  0  0  0  0
    2.3067    5.4994    0.0000 C   0  0  0  0  0  0  0  0  0  0  0  0
    0.8443    5.8332    0.0000 C   0  0  0  0  0  0  0  0  0  0  0  0
   -0.1760    4.7336    0.0000 C   0  0  0  0  0  0  0  0  0  0  0  0
    0.2662    3.3003    0.0000 C   0  0  0  0  0  0  0  0  0  0  0  0
    1.7286    2.9665    0.0000 C   0  0  0  0  0  0  0  0  0  0  0  0
    1.0777    1.3515    0.0000 C   0  0  0  0  0  0  0  0  0  0  0  0
    1.7286    0.0000    0.0000 N   0  0  0  0  0  0  0  0  0  0  0  0
    1.0777   -1.3515    0.0000 C   0  0  0  0  0  0  0  0  0  0  0  0
    1.7286   -2.7029    0.0000 N   0  0  0  0  0  0  0  0  0  0  0  0
    2.7488   -3.8025    0.0000 N   0  0  0  0  0  0  0  0  0  0  0  0
    4.0479   -4.5525    0.0000 C   0  0  0  0  0  0  0  0  0  0  0  0
    3.4999   -5.9488    0.0000 N   0  0  0  0  0  0  0  0  0  0  0  0
    5.5103   -4.8863    0.0000 N   0  0  0  0  0  0  0  0  0  0  0  0
    7.0061   -4.7742    0.0000 N   0  0  0  0  0  0  0  0  0  0  0  0
    8.4024   -4.2262    0.0000 N   0  0  0  0  0  0  0  0  0  0  0  0
    9.1524   -5.5252    0.0000 N   0  0  0  0  0  0  0  0  0  0  0  0
    8.4024   -6.8242    0.0000 N   0  0  0  0  0  0  0  0  0  0  0  0
    9.1524   -8.1233    0.0000 N   0  0  0  0  0  0  0  0  0  0  0  0
    8.4024   -9.4223    0.0000 N   0  0  0  0  0  0  0  0  0  0  0  0
    9.1524  -10.7213    0.0000 O   0  0  0  0  0  0  0  0  0  0  0  0
    9.5751   -3.2909    0.0000 C   0  0  0  0  0  0  0  0  0  0  0  0
   10.2260   -4.6424    0.0000 C   0  0  0  0  0  0  0  0  0  0  0  0
   11.7218   -4.7545    0.0000 C   0  0  0  0  0  0  0  0  0  0  0  0
   12.5667   -3.5151    0.0000 C   0  0  0  0  0  0  0  0  0  0  0  0
   14.0625   -3.6272    0.0000 C   0  0  0  0  0  0  0  0  0  0  0  0
   14.9075   -2.3879    0.0000 C   0  0  0  0  0  0  0  0  0  0  0  0
   16.4033   -2.4999    0.0000 C   0  0  0  0  0  0  0  0  0  0  0  0
   17.2483   -1.2606    0.0000 O   0  0  0  0  0  0  0  0  0  0  0  0
   16.5975    0.0909    0.0000 C   0  0  0  0  0  0  0  0  0  0  0  0
   17.4425    1.3302    0.0000 C   0  0  0  0  0  0  0  0  0  0  0  0
   16.7916    2.6817    0.0000 C   0  0  0  0  0  0  0  0  0  0  0  0
   17.6366    3.9210    0.0000 C   0  0  0  0  0  0  0  0  0  0  0  0
   19.1324    3.8089    0.0000 C   0  0  0  0  0  0  0  0  0  0  0  0
   19.9774    5.0483    0.0000 O   0  0  0  0  0  0  0  0  0  0  0  0
   19.3266    6.3998    0.0000 C   0  0  0  0  0  0  0  0  0  0  0  0
   19.7832    2.4575    0.0000 C   0  0  0  0  0  0  0  0  0  0  0  0
   18.9383    1.2181    0.0000 C   0  0  0  0  0  0  0  0  0  0  0  0
   17.0542   -3.8514    0.0000 C   0  0  0  0  0  0  0  0  0  0  0  0
   16.2092   -5.0908    0.0000 C   0  0  0  0  0  0  0  0  0  0  0  0
   14.7134   -4.9787    0.0000 C   0  0  0  0  0  0  0  0  0  0  0  0
   13.8684   -6.2180    0.0000 N   0  0  0  0  0  0  0  0  0  0  0  0
   12.3726   -6.1059    0.0000 N   0  0  0  0  0  0  0  0  0  0  0  0
   11.5276   -7.3453    0.0000 N   0  0  0  0  0  0  0  0  0  0  0  0
   10.0318   -7.2332    0.0000 O   0  0  0  0  0  0  0  0  0  0  0  0
   14.5192   -7.5695    0.0000 C   0  0  0  0  0  0  0  0  0  0  0  0
   16.0150   -7.6816    0.0000 C   0  0  0  0  0  0  0  0  0  0  0  0
   16.6658   -9.0330    0.0000 C   0  0  0  0  0  0  0  0  0  0  0  0
   15.8209  -10.2724    0.0000 C   0  0  0  0  0  0  0  0  0  0  0  0
   16.4717  -11.6238    0.0000 O   0  0  0  0  0  0  0  0  0  0  0  0
   17.9675  -11.7359    0.0000 C   0  0  0  0  0  0  0  0  0  0  0  0
   14.3251  -10.1603    0.0000 C   0  0  0  0  0  0  0  0  0  0  0  0
   13.6742   -8.8088    0.0000 C   0  0  0  0  0  0  0  0  0  0  0  0
   11.9159   -2.1637    0.0000 C   0  0  0  0  0  0  0  0  0  0  0  0
   10.4201   -2.0516    0.0000 C   0  0  0  0  0  0  0  0  0  0  0  0
   10.8622   -0.6182    0.0000 N   0  0  0  0  0  0  0  0  0  0  0  0
   12.2906   -0.0303    0.0000 C   0  0  0  0  0  0  0  0  0  0  0  0
   13.2258   -1.2031    0.0000 O   0  0  0  0  0  0  0  0  0  0  0  0
   10.8622    0.8818    0.0000 C   0  0  0  0  0  0  0  0  0  0  0  0
   12.0718    0.7668    0.0000 O   0  0  0  0  0  0  0  0  0  0  0  0
   -0.3846   -1.6852    0.0000 N   0  0  0  0  0  0  0  0  0  0  0  0
   -1.5574   -0.7500    0.0000 N   0  0  0  0  0  0  0  0  0  0  0  0
   -1.5574    0.7500    0.0000 C   0  0  0  0  0  0  0  0  0  0  0  0
   -0.3846    1.6852    0.0000 N   0  0  0  0  0  0  0  0  0  0  0  0
  1  2  1  0
  2  3  1  0
  3  4  2  0
  4  5  1  0
  5  6  2  0
  6  7  1  0
  6  8  1  0
  8  9  1  0
  9 10  1  0
 10 11  2  0
 11 12  1  0
 12 13  2  0
 13 14  1  0
 14 15  2  0
 15 16  1  0
 16 17  1  0
 17 18  2  0
 17 19  1  0
 13 20  1  0
 20 21  2  0
 21 22  1  0
 22 23  2  0
 23 24  1  0
 24 25  2  0
 25 26  1  0
 26 27  2  0
 27 28  1  0
 28 29  2  3
 29 30  1  0
 30 31  2  3
 31 32  1  0
 31 33  1  0
 33 34  2  3
 34 35  1  0
 35 36  1  0
 36 37  2  3
 37 38  1  0
 38 39  2  3
 39 40  1  0
 35 41  1  0
 41 42  2  0
 42 43  1  0
 43 44  2  0
 44 45  1  0
 45 46  2  0
 46 47  1  0
 47 48  1  0
 48 49  1  0
 49 50  1  0
 50 51  2  0
 51 52  1  0
 52 53  2  0
 53 54  1  0
 54 55  1  0
 53 56  1  0
 56 57  2  0
 47 58  2  0
 58 59  1  0
 59 60  2  0
 60 61  1  0
 61 62  1  0
 62 63  2  3
 63 64  1  0
 61 65  1  0
 65 66  2  0
 66 67  1  0
 67 68  2  0
 68 69  1  0
 69 70  1  0
 68 71  1  0
 71 72  2  0
 44 73  1  0
 73 74  2  0
 74 75  1  0
 75 76  1  0
 76 77  2  0
 75 78  1  0
 78 79  2  0
 28 80  1  0
 80 81  1  0
 81 82  2  0
 82 83  2  0
  7  3  1  0
 78  8  1  0
 76  5  1  0
 15 10  1  0
 25 20  1  0
 83 26  1  0
 74 41  1  0
 60 45  1  0
 72 65  1  0
 57 50  1  0
M  END
$$$$
