
     RDKit          2D

 37 40  0  0  0  0  0  0  0  0999 V2000
    3.1467   -6.0321    0.0000 C   0  0  0  0  0  0  0  0  0  0  0  0
    1.6467   -6.0321    0.0000 C   0  0  0  0  0  0  0  0  0  0  0  0
    0.8967   -4.7331    0.0000 C   0  0  0  0  0  0  0  0  0  0  0  0
   -0.6033   -4.7331    0.0000 C   0  0  0  0  0  0  0  0  0  0  0  0
   -1.3533   -3.4340    0.0000 C   0  0  0  0  0  0  0  0  0  0  0  0
   -2.7866   -3.8761    0.0000 N   0  0  0  0  0  0  0  0  0  0  0  0
   -4.2699   -3.6526    0.0000 C   0  0  0  0  0  0  0  0  0  0  0  0
   -4.8179   -5.0489    0.0000 O   0  0  0  0  0  0  0  0  0  0  0  0
   -5.5092   -2.8076    0.0000 C   0  0  0  0  0  0  0  0  0  0  0  0
   -6.2592   -1.5086    0.0000 C   0  0  0  0  0  0  0  0  0  0  0  0
   -6.3713   -0.0128    0.0000 C   0  0  0  0  0  0  0  0  0  0  0  0
   -5.8233    1.3836    0.0000 O   0  0  0  0  0  0  0  0  0  0  0  0
   -4.7237    2.4038    0.0000 C   0  0  0  0  0  0  0  0  0  0  0  0
   -5.4737    3.7028    0.0000 O   0  0  0  0  0  0  0  0  0  0  0  0
   -2.6807    1.7900    0.0000 C   0  0  0  0  0  0  0  0  0  0  0  0
   -3.6844    0.6753    0.0000 N   0  0  0  0  0  0  0  0  0  0  0  0
   -3.8412   -0.8165    0.0000 C   0  0  0  0  0  0  0  0  0  0  0  0
   -5.3085   -1.1283    0.0000 O   0  0  0  0  0  0  0  0  0  0  0  0
   -3.0912   -2.1155    0.0000 C   0  0  0  0  0  0  0  0  0  0  0  0
   -4.5585   -2.4274    0.0000 N   0  0  0  0  0  0  0  0  0  0  0  0
   -3.2480   -3.6073    0.0000 C   0  0  0  0  0  0  0  0  0  0  0  0
   -2.0345   -4.4890    0.0000 O   0  0  0  0  0  0  0  0  0  0  0  0
   -4.6183   -4.2174    0.0000 N   0  0  0  0  0  0  0  0  0  0  0  0
   -4.7751   -5.7092    0.0000 C   0  0  0  0  0  0  0  0  0  0  0  0
   -6.1455   -6.3193    0.0000 C   0  0  0  0  0  0  0  0  0  0  0  0
   -6.3022   -7.8111    0.0000 C   0  0  0  0  0  0  0  0  0  0  0  0
   -5.0887   -8.6928    0.0000 C   0  0  0  0  0  0  0  0  0  0  0  0
   -3.7184   -8.0826    0.0000 C   0  0  0  0  0  0  0  0  0  0  0  0
   -3.5616   -6.5909    0.0000 C   0  0  0  0  0  0  0  0  0  0  0  0
   -1.7209   -2.7256    0.0000 C   0  0  0  0  0  0  0  0  0  0  0  0
   -0.2537   -2.4138    0.0000 N   0  0  0  0  0  0  0  0  0  0  0  0
    0.7500   -1.2990    0.0000 C   0  0  0  0  0  0  0  0  0  0  0  0
    1.5000    0.0000    0.0000 C   0  0  0  0  0  0  0  0  0  0  0  0
    0.7500    1.2990    0.0000 C   0  0  0  0  0  0  0  0  0  0  0  0
   -0.7500    1.2990    0.0000 C   0  0  0  0  0  0  0  0  0  0  0  0
   -1.5000    0.0000    0.0000 C   0  0  0  0  0  0  0  0  0  0  0  0
   -0.7500   -1.2990    0.0000 C   0  0  0  0  0  0  0  0  0  0  0  0
  1  2  1  0
  2  3  1  0
  3  4  1  0
  4  5  1  0
  5  6  2  3
  6  7  1  0
  7  8  2  0
  7  9  1  0
  9 10  1  0
 10 11  1  0
 11 12  1  0
 12 13  1  0
 13 14  2  0
 13 15  1  0
 15 16  1  0
 16 17  1  0
 17 18  2  0
 17 19  1  0
 19 20  1  0
 19 21  1  0
 21 22  2  0
 21 23  1  0
 23 24  1  0
 24 25  2  0
 25 26  1  0
 26 27  2  0
 27 28  1  0
 28 29  2  0
 19 30  1  0
 30 31  1  0
 31 32  1  0
 32 33  2  0
 33 34  1  0
 34 35  2  0
 35 36  1  0
 36 37  2  0
 31  5  1  0
 37 32  1  0
 35 15  1  0
 29 24  1  0
M  END
$$$$
