
     RDKit          2D

 43 48  0  0  0  0  0  0  0  0999 V2000
   -5.7507    0.3225    0.0000 C   0  0  0  0  0  0  0  0  0  0  0  0
   -6.0240   -1.1524    0.0000 C   0  0  0  0  0  0  0  0  0  0  0  0
   -4.8834   -2.1266    0.0000 C   0  0  0  0  0  0  0  0  0  0  0  0
   -5.3469   -3.5532    0.0000 C   0  0  0  0  0  0  0  0  0  0  0  0
   -4.6660   -4.8897    0.0000 C   0  0  0  0  0  0  0  0  0  0  0  0
   -3.4307   -5.9422    0.0000 C   0  0  0  0  0  0  0  0  0  0  0  0
   -2.6807   -7.2413    0.0000 C   0  0  0  0  0  0  0  0  0  0  0  0
   -1.4672   -8.1229    0.0000 N   0  0  0  0  0  0  0  0  0  0  0  0
   -1.1309   -9.6229    0.0000 C   0  0  0  0  0  0  0  0  0  0  0  0
   -2.4299  -10.3729    0.0000 O   0  0  0  0  0  0  0  0  0  0  0  0
    0.1682  -10.3729    0.0000 C   0  0  0  0  0  0  0  0  0  0  0  0
    1.4672   -9.6229    0.0000 C   0  0  0  0  0  0  0  0  0  0  0  0
    2.5819  -10.6266    0.0000 S   0  0  0  0  0  0  0  0  0  0  0  0
    1.9718  -11.9970    0.0000 C   0  0  0  0  0  0  0  0  0  0  0  0
    2.7218  -13.2960    0.0000 C   0  0  0  0  0  0  0  0  0  0  0  0
    1.9718  -14.5950    0.0000 C   0  0  0  0  0  0  0  0  0  0  0  0
    0.4801  -11.8402    0.0000 C   0  0  0  0  0  0  0  0  0  0  0  0
    1.4672   -8.1229    0.0000 N   0  0  0  0  0  0  0  0  0  0  0  0
    2.6807   -7.2413    0.0000 C   0  0  0  0  0  0  0  0  0  0  0  0
    3.4307   -5.9422    0.0000 C   0  0  0  0  0  0  0  0  0  0  0  0
    3.5875   -4.4504    0.0000 C   0  0  0  0  0  0  0  0  0  0  0  0
    3.1240   -3.0239    0.0000 C   0  0  0  0  0  0  0  0  0  0  0  0
    2.1203   -1.9091    0.0000 C   0  0  0  0  0  0  0  0  0  0  0  0
    1.9635   -3.4009    0.0000 C   0  0  0  0  0  0  0  0  0  0  0  0
    2.4271   -4.8275    0.0000 C   0  0  0  0  0  0  0  0  0  0  0  0
    1.1280   -5.5775    0.0000 C   0  0  0  0  0  0  0  0  0  0  0  0
    0.7500   -1.2990    0.0000 C   0  0  0  0  0  0  0  0  0  0  0  0
    1.5000    0.0000    0.0000 C   0  0  0  0  0  0  0  0  0  0  0  0
    0.7500    1.2990    0.0000 C   0  0  0  0  0  0  0  0  0  0  0  0
   -0.7500    1.2990    0.0000 C   0  0  0  0  0  0  0  0  0  0  0  0
   -1.5000    0.0000    0.0000 C   0  0  0  0  0  0  0  0  0  0  0  0
   -0.7500   -1.2990    0.0000 C   0  0  0  0  0  0  0  0  0  0  0  0
   -2.1203   -1.9091    0.0000 C   0  0  0  0  0  0  0  0  0  0  0  0
   -3.5469   -1.4456    0.0000 N   0  0  0  0  0  0  0  0  0  0  0  0
   -3.1240   -3.0239    0.0000 N   0  0  0  0  0  0  0  0  0  0  0  0
   -3.5875   -4.4504    0.0000 C   0  0  0  0  0  0  0  0  0  0  0  0
   -5.0793   -4.2937    0.0000 N   0  0  0  0  0  0  0  0  0  0  0  0
   -5.9610   -5.5072    0.0000 C   0  0  0  0  0  0  0  0  0  0  0  0
   -5.3509   -6.8775    0.0000 O   0  0  0  0  0  0  0  0  0  0  0  0
   -7.4528   -5.3504    0.0000 O   0  0  0  0  0  0  0  0  0  0  0  0
   -8.3345   -6.5639    0.0000 C   0  0  0  0  0  0  0  0  0  0  0  0
    0.0000   -8.4348    0.0000 C   0  0  0  0  0  0  0  0  0  0  0  0
    0.3630   -9.8902    0.0000 O   0  0  0  0  0  0  0  0  0  0  0  0
  1  2  1  0
  2  3  1  0
  3  4  2  3
  4  5  1  0
  5  6  2  3
  6  7  1  0
  7  8  1  0
  8  9  1  0
  9 10  2  0
  9 11  1  0
 11 12  2  0
 12 13  1  0
 13 14  1  0
 14 15  1  0
 15 16  1  0
 14 17  2  0
 12 18  1  0
 18 19  1  0
 19 20  1  0
 20 21  2  0
 21 22  1  0
 22 23  2  0
 23 24  1  0
 24 25  2  0
 25 26  1  0
 23 27  1  0
 27 28  2  0
 28 29  1  0
 29 30  2  0
 30 31  1  0
 31 32  2  0
 32 33  1  0
 33 34  2  3
 33 35  1  0
 35 36  2  3
 36 37  1  0
 37 38  1  0
 38 39  2  0
 38 40  1  0
 40 41  1  0
 18 42  1  0
 42 43  2  0
 34  3  1  0
 36  6  1  0
 42  8  1  0
 17 11  1  0
 25 20  1  0
 32 27  1  0
M  END
$$$$
