
     RDKit          2D

 43 47  0  0  0  0  0  0  0  0999 V2000
   -4.2164   -2.1363    0.0000 C   0  0  0  0  0  0  0  0  0  0  0  0
   -3.2127   -3.2511    0.0000 C   0  0  0  0  0  0  0  0  0  0  0  0
   -1.7455   -2.9392    0.0000 C   0  0  0  0  0  0  0  0  0  0  0  0
   -0.7418   -4.0539    0.0000 C   0  0  0  0  0  0  0  0  0  0  0  0
   -1.0537   -5.5211    0.0000 N   0  0  0  0  0  0  0  0  0  0  0  0
    0.2454   -6.2711    0.0000 C   0  0  0  0  0  0  0  0  0  0  0  0
    0.4022   -7.7629    0.0000 C   0  0  0  0  0  0  0  0  0  0  0  0
    1.3601   -5.2674    0.0000 C   0  0  0  0  0  0  0  0  0  0  0  0
    2.8273   -5.5793    0.0000 C   0  0  0  0  0  0  0  0  0  0  0  0
    3.8310   -4.4646    0.0000 O   0  0  0  0  0  0  0  0  0  0  0  0
    3.2909   -7.0059    0.0000 C   0  0  0  0  0  0  0  0  0  0  0  0
    4.7174   -6.5424    0.0000 C   0  0  0  0  0  0  0  0  0  0  0  0
    1.8643   -7.4694    0.0000 C   0  0  0  0  0  0  0  0  0  0  0  0
    3.7544   -8.4325    0.0000 C   0  0  0  0  0  0  0  0  0  0  0  0
    2.7507   -9.5472    0.0000 C   0  0  0  0  0  0  0  0  0  0  0  0
    3.2142  -10.9738    0.0000 C   0  0  0  0  0  0  0  0  0  0  0  0
    2.2105  -12.0885    0.0000 C   0  0  0  0  0  0  0  0  0  0  0  0
    2.6740  -13.5151    0.0000 C   0  0  0  0  0  0  0  0  0  0  0  0
    1.6703  -14.6298    0.0000 C   0  0  0  0  0  0  0  0  0  0  0  0
    1.9822  -16.0970    0.0000 C   0  0  0  0  0  0  0  0  0  0  0  0
    0.6832  -16.8470    0.0000 C   0  0  0  0  0  0  0  0  0  0  0  0
    0.5264  -18.3388    0.0000 O   0  0  0  0  0  0  0  0  0  0  0  0
   -0.4315  -15.8433    0.0000 N   0  0  0  0  0  0  0  0  0  0  0  0
    0.1786  -14.4730    0.0000 O   0  0  0  0  0  0  0  0  0  0  0  0
    0.7500   -3.8971    0.0000 N   0  0  0  0  0  0  0  0  0  0  0  0
    1.5000   -2.5981    0.0000 C   0  0  0  0  0  0  0  0  0  0  0  0
    0.7500   -1.2990    0.0000 C   0  0  0  0  0  0  0  0  0  0  0  0
    1.5000    0.0000    0.0000 C   0  0  0  0  0  0  0  0  0  0  0  0
    0.7500    1.2990    0.0000 C   0  0  0  0  0  0  0  0  0  0  0  0
   -0.7500    1.2990    0.0000 C   0  0  0  0  0  0  0  0  0  0  0  0
   -1.5000    2.5981    0.0000 C   0  0  0  0  0  0  0  0  0  0  0  0
   -0.7500    3.8971    0.0000 C   0  0  0  0  0  0  0  0  0  0  0  0
   -1.5000    5.1962    0.0000 C   0  0  0  0  0  0  0  0  0  0  0  0
   -3.0000    5.1962    0.0000 C   0  0  0  0  0  0  0  0  0  0  0  0
   -3.7500    3.8971    0.0000 C   0  0  0  0  0  0  0  0  0  0  0  0
   -3.0000    2.5981    0.0000 C   0  0  0  0  0  0  0  0  0  0  0  0
   -3.7500    1.2990    0.0000 C   0  0  0  0  0  0  0  0  0  0  0  0
   -3.1399   -0.0713    0.0000 N   0  0  0  0  0  0  0  0  0  0  0  0
   -4.2546   -1.0750    0.0000 N   0  0  0  0  0  0  0  0  0  0  0  0
   -5.5537   -0.3250    0.0000 N   0  0  0  0  0  0  0  0  0  0  0  0
   -5.2418    1.1422    0.0000 N   0  0  0  0  0  0  0  0  0  0  0  0
   -1.5000    0.0000    0.0000 C   0  0  0  0  0  0  0  0  0  0  0  0
   -0.7500   -1.2990    0.0000 C   0  0  0  0  0  0  0  0  0  0  0  0
  1  2  1  0
  2  3  1  0
  3  4  1  0
  4  5  2  0
  5  6  1  0
  6  7  1  0
  6  8  2  0
  8  9  1  0
  9 10  2  0
  9 11  1  0
 11 12  1  0
 11 13  1  0
 11 14  1  0
 14 15  1  0
 15 16  1  0
 16 17  1  0
 17 18  1  0
 18 19  1  0
 19 20  1  0
 20 21  1  0
 21 22  2  0
 21 23  1  0
 23 24  1  0
  8 25  1  0
 25 26  1  0
 26 27  1  0
 27 28  2  0
 28 29  1  0
 29 30  2  0
 30 31  1  0
 31 32  2  0
 32 33  1  0
 33 34  2  0
 34 35  1  0
 35 36  2  0
 36 37  1  0
 37 38  2  0
 38 39  1  0
 39 40  2  0
 40 41  1  0
 30 42  1  0
 42 43  2  0
 25  4  1  0
 43 27  1  0
 24 19  1  0
 36 31  1  0
 41 37  1  0
M  END
$$$$
