
     RDKit          2D

 32 34  0  0  0  0  0  0  0  0999 V2000
   -7.1402   -6.2906    0.0000 C   0  0  0  0  0  0  0  0  0  0  0  0
   -5.7544   -6.8647    0.0000 C   0  0  0  0  0  0  0  0  0  0  0  0
   -5.5586   -8.3518    0.0000 C   0  0  0  0  0  0  0  0  0  0  0  0
   -4.5643   -5.9515    0.0000 C   0  0  0  0  0  0  0  0  0  0  0  0
   -3.1785   -6.5256    0.0000 C   0  0  0  0  0  0  0  0  0  0  0  0
   -2.9827   -8.0127    0.0000 O   0  0  0  0  0  0  0  0  0  0  0  0
   -1.9885   -5.6124    0.0000 C   0  0  0  0  0  0  0  0  0  0  0  0
   -0.6027   -6.1864    0.0000 N   0  0  0  0  0  0  0  0  0  0  0  0
    0.5874   -5.2733    0.0000 C   0  0  0  0  0  0  0  0  0  0  0  0
    0.3916   -3.7861    0.0000 N   0  0  0  0  0  0  0  0  0  0  0  0
    1.5816   -2.8730    0.0000 C   0  0  0  0  0  0  0  0  0  0  0  0
    1.3858   -1.3858    0.0000 C   0  0  0  0  0  0  0  0  0  0  0  0
    2.8730   -1.5816    0.0000 C   0  0  0  0  0  0  0  0  0  0  0  0
    3.7861   -0.3916    0.0000 C   0  0  0  0  0  0  0  0  0  0  0  0
    5.2856   -0.4308    0.0000 C   0  0  0  0  0  0  0  0  0  0  0  0
    6.1352   -1.6670    0.0000 O   0  0  0  0  0  0  0  0  0  0  0  0
    7.6306   -1.5493    0.0000 C   0  0  0  0  0  0  0  0  0  0  0  0
    8.2764   -0.1955    0.0000 O   0  0  0  0  0  0  0  0  0  0  0  0
    8.4802   -2.7855    0.0000 O   0  0  0  0  0  0  0  0  0  0  0  0
    5.7863    0.9831    0.0000 N   0  0  0  0  0  0  0  0  0  0  0  0
    4.5963    1.8963    0.0000 C   0  0  0  0  0  0  0  0  0  0  0  0
    3.3601    1.0467    0.0000 N   0  0  0  0  0  0  0  0  0  0  0  0
    1.9598    0.0000    0.0000 C   0  0  0  0  0  0  0  0  0  0  0  0
    1.3858    1.3858    0.0000 C   0  0  0  0  0  0  0  0  0  0  0  0
    0.0000    1.9598    0.0000 C   0  0  0  0  0  0  0  0  0  0  0  0
   -1.3858    1.3858    0.0000 C   0  0  0  0  0  0  0  0  0  0  0  0
   -1.9598    0.0000    0.0000 C   0  0  0  0  0  0  0  0  0  0  0  0
   -1.3858   -1.3858    0.0000 C   0  0  0  0  0  0  0  0  0  0  0  0
   -0.0000   -1.9598    0.0000 C   0  0  0  0  0  0  0  0  0  0  0  0
    2.9674   -3.4470    0.0000 N   0  0  0  0  0  0  0  0  0  0  0  0
    3.1632   -4.9342    0.0000 N   0  0  0  0  0  0  0  0  0  0  0  0
    1.9732   -5.8473    0.0000 C   0  0  0  0  0  0  0  0  0  0  0  0
  1  2  1  0
  2  3  1  0
  2  4  1  0
  4  5  1  0
  5  6  2  0
  5  7  1  0
  7  8  2  3
  8  9  1  0
  9 10  2  0
 10 11  1  0
 11 12  1  0
 12 13  1  0
 13 14  1  0
 14 15  2  0
 15 16  1  0
 16 17  1  0
 17 18  2  0
 17 19  1  0
 15 20  1  0
 20 21  2  0
 21 22  1  0
 12 23  1  0
 23 24  1  0
 24 25  1  0
 25 26  1  0
 26 27  1  0
 27 28  1  0
 28 29  1  0
 11 30  2  0
 30 31  1  0
 31 32  2  0
 32  9  1  0
 29 12  1  0
 22 14  1  0
M  END
$$$$
