
     RDKit          2D

 64 72  0  0  0  0  0  0  0  0999 V2000
   16.6692    1.8561    0.0000 C   0  0  0  0  0  0  0  0  0  0  0  0
   15.3702    2.6061    0.0000 C   0  0  0  0  0  0  0  0  0  0  0  0
   14.0711    1.8561    0.0000 C   0  0  0  0  0  0  0  0  0  0  0  0
   13.9143    0.3643    0.0000 C   0  0  0  0  0  0  0  0  0  0  0  0
   12.4471    0.0524    0.0000 C   0  0  0  0  0  0  0  0  0  0  0  0
   11.6971    1.3515    0.0000 C   0  0  0  0  0  0  0  0  0  0  0  0
   12.7008    2.4662    0.0000 S   0  0  0  0  0  0  0  0  0  0  0  0
   10.1971    1.3515    0.0000 N   0  0  0  0  0  0  0  0  0  0  0  0
    9.5161    2.6880    0.0000 C   0  0  0  0  0  0  0  0  0  0  0  0
    8.4555    3.7486    0.0000 C   0  0  0  0  0  0  0  0  0  0  0  0
    7.1190    4.4296    0.0000 C   0  0  0  0  0  0  0  0  0  0  0  0
    5.6374    4.6643    0.0000 C   0  0  0  0  0  0  0  0  0  0  0  0
    4.1559    4.4296    0.0000 C   0  0  0  0  0  0  0  0  0  0  0  0
    5.4924    3.7486    0.0000 C   0  0  0  0  0  0  0  0  0  0  0  0
    6.9739    3.5140    0.0000 C   0  0  0  0  0  0  0  0  0  0  0  0
    6.9739    2.0140    0.0000 O   0  0  0  0  0  0  0  0  0  0  0  0
    5.6749    1.2640    0.0000 C   0  0  0  0  0  0  0  0  0  0  0  0
    2.8194    3.7486    0.0000 C   0  0  0  0  0  0  0  0  0  0  0  0
    2.4312    5.1975    0.0000 C   0  0  0  0  0  0  0  0  0  0  0  0
    0.9823    5.5857    0.0000 C   0  0  0  0  0  0  0  0  0  0  0  0
   -0.0784    4.5251    0.0000 C   0  0  0  0  0  0  0  0  0  0  0  0
    0.3098    3.0762    0.0000 C   0  0  0  0  0  0  0  0  0  0  0  0
    1.7587    2.6880    0.0000 C   0  0  0  0  0  0  0  0  0  0  0  0
    1.0777    1.3515    0.0000 C   0  0  0  0  0  0  0  0  0  0  0  0
    1.7286    0.0000    0.0000 N   0  0  0  0  0  0  0  0  0  0  0  0
    1.0777   -1.3515    0.0000 C   0  0  0  0  0  0  0  0  0  0  0  0
    1.7587   -2.9481    0.0000 N   0  0  0  0  0  0  0  0  0  0  0  0
    2.8194   -4.0088    0.0000 N   0  0  0  0  0  0  0  0  0  0  0  0
    4.1559   -4.6898    0.0000 C   0  0  0  0  0  0  0  0  0  0  0  0
    3.6924   -6.1164    0.0000 C   0  0  0  0  0  0  0  0  0  0  0  0
    4.6961   -7.2311    0.0000 C   0  0  0  0  0  0  0  0  0  0  0  0
    4.2325   -8.6577    0.0000 C   0  0  0  0  0  0  0  0  0  0  0  0
    2.7653   -8.9695    0.0000 C   0  0  0  0  0  0  0  0  0  0  0  0
    2.3018  -10.3961    0.0000 O   0  0  0  0  0  0  0  0  0  0  0  0
    1.7616   -7.8548    0.0000 C   0  0  0  0  0  0  0  0  0  0  0  0
    2.2252   -6.4282    0.0000 C   0  0  0  0  0  0  0  0  0  0  0  0
    5.6374   -4.9244    0.0000 N   0  0  0  0  0  0  0  0  0  0  0  0
    7.1190   -4.6898    0.0000 N   0  0  0  0  0  0  0  0  0  0  0  0
    7.5825   -6.1164    0.0000 N   0  0  0  0  0  0  0  0  0  0  0  0
    6.5788   -7.2311    0.0000 C   0  0  0  0  0  0  0  0  0  0  0  0
    5.1116   -6.9192    0.0000 O   0  0  0  0  0  0  0  0  0  0  0  0
    4.4074   -8.2437    0.0000 C   0  0  0  0  0  0  0  0  0  0  0  0
    7.0423   -8.6577    0.0000 C   0  0  0  0  0  0  0  0  0  0  0  0
    6.0386   -9.7724    0.0000 C   0  0  0  0  0  0  0  0  0  0  0  0
    6.5022  -11.1990    0.0000 C   0  0  0  0  0  0  0  0  0  0  0  0
    7.9694  -11.5108    0.0000 C   0  0  0  0  0  0  0  0  0  0  0  0
    8.9731  -10.3961    0.0000 C   0  0  0  0  0  0  0  0  0  0  0  0
    8.5095   -8.9695    0.0000 C   0  0  0  0  0  0  0  0  0  0  0  0
    8.4555   -4.0088    0.0000 C   0  0  0  0  0  0  0  0  0  0  0  0
    8.8437   -5.4577    0.0000 C   0  0  0  0  0  0  0  0  0  0  0  0
   10.2926   -5.8459    0.0000 C   0  0  0  0  0  0  0  0  0  0  0  0
   10.6808   -7.2948    0.0000 O   0  0  0  0  0  0  0  0  0  0  0  0
   11.3533   -4.7852    0.0000 C   0  0  0  0  0  0  0  0  0  0  0  0
   10.9650   -3.3364    0.0000 C   0  0  0  0  0  0  0  0  0  0  0  0
    9.5161   -2.9481    0.0000 C   0  0  0  0  0  0  0  0  0  0  0  0
   10.1971   -1.6116    0.0000 N   0  0  0  0  0  0  0  0  0  0  0  0
   11.6971   -1.2466    0.0000 C   0  0  0  0  0  0  0  0  0  0  0  0
   12.4471   -2.5457    0.0000 O   0  0  0  0  0  0  0  0  0  0  0  0
   10.4318   -0.1301    0.0000 C   0  0  0  0  0  0  0  0  0  0  0  0
   11.8872   -0.4930    0.0000 O   0  0  0  0  0  0  0  0  0  0  0  0
   -0.3846   -1.6852    0.0000 N   0  0  0  0  0  0  0  0  0  0  0  0
   -1.5574   -0.7500    0.0000 N   0  0  0  0  0  0  0  0  0  0  0  0
   -1.5574    0.7500    0.0000 C   0  0  0  0  0  0  0  0  0  0  0  0
   -0.3846    1.6852    0.0000 N   0  0  0  0  0  0  0  0  0  0  0  0
  1  2  1  0
  2  3  1  0
  3  4  2  0
  4  5  1  0
  5  6  2  0
  6  7  1  0
  6  8  1  0
  8  9  1  0
  9 10  1  0
 10 11  2  0
 11 12  1  0
 12 13  2  0
 13 14  1  0
 14 15  2  0
 15 16  1  0
 16 17  1  0
 13 18  1  0
 18 19  2  0
 19 20  1  0
 20 21  2  0
 21 22  1  0
 22 23  2  0
 23 24  1  0
 24 25  2  0
 25 26  1  0
 26 27  2  3
 27 28  1  0
 28 29  2  3
 29 30  1  0
 30 31  2  0
 31 32  1  0
 32 33  2  0
 33 34  1  0
 33 35  1  0
 35 36  2  0
 29 37  1  0
 37 38  1  0
 38 39  1  0
 39 40  2  3
 40 41  1  0
 41 42  1  0
 40 43  1  0
 43 44  2  0
 44 45  1  0
 45 46  2  0
 46 47  1  0
 47 48  2  0
 38 49  1  0
 49 50  2  0
 50 51  1  0
 51 52  1  0
 51 53  2  0
 53 54  1  0
 54 55  2  0
 55 56  1  0
 56 57  1  0
 57 58  2  0
 56 59  1  0
 59 60  2  0
 26 61  1  0
 61 62  1  0
 62 63  2  0
 63 64  2  0
  7  3  1  0
 59  8  1  0
 57  5  1  0
 15 10  1  0
 23 18  1  0
 64 24  1  0
 36 30  1  0
 48 43  1  0
 55 49  1  0
M  END
$$$$
