
     RDKit          2D

 37 41  0  0  0  0  0  0  0  0999 V2000
    5.1176   -5.8015    0.0000 O   0  0  0  0  0  0  0  0  0  0  0  0
    3.6590   -6.1517    0.0000 C   0  0  0  0  0  0  0  0  0  0  0  0
    3.2330   -7.5899    0.0000 O   0  0  0  0  0  0  0  0  0  0  0  0
    2.6265   -5.0636    0.0000 C   0  0  0  0  0  0  0  0  0  0  0  0
    2.8998   -3.5887    0.0000 N   0  0  0  0  0  0  0  0  0  0  0  0
    1.5816   -2.8730    0.0000 C   0  0  0  0  0  0  0  0  0  0  0  0
    1.3858   -1.3858    0.0000 C   0  0  0  0  0  0  0  0  0  0  0  0
    2.8730   -1.5816    0.0000 C   0  0  0  0  0  0  0  0  0  0  0  0
    3.7861   -0.3916    0.0000 C   0  0  0  0  0  0  0  0  0  0  0  0
    3.2121    0.9942    0.0000 C   0  0  0  0  0  0  0  0  0  0  0  0
    4.1252    2.1843    0.0000 C   0  0  0  0  0  0  0  0  0  0  0  0
    5.6124    1.9885    0.0000 C   0  0  0  0  0  0  0  0  0  0  0  0
    6.5256    3.1785    0.0000 C   0  0  0  0  0  0  0  0  0  0  0  0
    5.9515    4.5643    0.0000 C   0  0  0  0  0  0  0  0  0  0  0  0
    6.8647    5.7544    0.0000 C   0  0  0  0  0  0  0  0  0  0  0  0
    8.3518    5.5586    0.0000 C   0  0  0  0  0  0  0  0  0  0  0  0
    8.9259    4.1728    0.0000 C   0  0  0  0  0  0  0  0  0  0  0  0
    8.0127    2.9827    0.0000 C   0  0  0  0  0  0  0  0  0  0  0  0
    8.5867    1.5969    0.0000 C   0  0  0  0  0  0  0  0  0  0  0  0
    7.8030    0.3179    0.0000 N   0  0  0  0  0  0  0  0  0  0  0  0
    8.7772   -0.8227    0.0000 N   0  0  0  0  0  0  0  0  0  0  0  0
   10.1630   -0.2486    0.0000 N   0  0  0  0  0  0  0  0  0  0  0  0
   10.0453    1.2467    0.0000 N   0  0  0  0  0  0  0  0  0  0  0  0
    6.1864    0.6027    0.0000 C   0  0  0  0  0  0  0  0  0  0  0  0
    5.2733   -0.5874    0.0000 C   0  0  0  0  0  0  0  0  0  0  0  0
    1.9598    0.0000    0.0000 C   0  0  0  0  0  0  0  0  0  0  0  0
    1.3858    1.3858    0.0000 C   0  0  0  0  0  0  0  0  0  0  0  0
    0.0000    1.9598    0.0000 C   0  0  0  0  0  0  0  0  0  0  0  0
   -1.3858    1.3858    0.0000 C   0  0  0  0  0  0  0  0  0  0  0  0
   -1.9598    0.0000    0.0000 C   0  0  0  0  0  0  0  0  0  0  0  0
   -1.3858   -1.3858    0.0000 C   0  0  0  0  0  0  0  0  0  0  0  0
   -0.0000   -1.9598    0.0000 C   0  0  0  0  0  0  0  0  0  0  0  0
    0.4935   -3.9055    0.0000 N   0  0  0  0  0  0  0  0  0  0  0  0
    1.1393   -5.2594    0.0000 N   0  0  0  0  0  0  0  0  0  0  0  0
    0.4236   -6.5776    0.0000 C   0  0  0  0  0  0  0  0  0  0  0  0
    1.2073   -7.8566    0.0000 O   0  0  0  0  0  0  0  0  0  0  0  0
   -1.0759   -6.6169    0.0000 O   0  0  0  0  0  0  0  0  0  0  0  0
  1  2  2  0
  2  3  1  0
  2  4  1  0
  4  5  2  0
  5  6  1  0
  6  7  1  0
  7  8  1  0
  8  9  1  0
  9 10  2  0
 10 11  1  0
 11 12  2  0
 12 13  1  0
 13 14  2  0
 14 15  1  0
 15 16  2  0
 16 17  1  0
 17 18  2  0
 18 19  1  0
 19 20  2  0
 20 21  1  0
 21 22  2  0
 22 23  1  0
 12 24  1  0
 24 25  2  0
  7 26  1  0
 26 27  1  0
 27 28  1  0
 28 29  1  0
 29 30  1  0
 30 31  1  0
 31 32  1  0
  6 33  2  0
 33 34  1  0
 34 35  1  0
 35 36  2  0
 35 37  1  0
 34  4  1  0
 32  7  1  0
 25  9  1  0
 18 13  1  0
 23 19  1  0
M  END
$$$$
