
     RDKit          2D

 61 67  0  0  0  0  0  0  0  0999 V2000
   -2.6941   -4.1977    0.0000 C   0  0  0  0  0  0  0  0  0  0  0  0
   -2.3143   -2.7466    0.0000 O   0  0  0  0  0  0  0  0  0  0  0  0
   -0.8677   -2.3499    0.0000 C   0  0  0  0  0  0  0  0  0  0  0  0
   -0.4879   -0.8988    0.0000 C   0  0  0  0  0  0  0  0  0  0  0  0
    0.9587   -0.5021    0.0000 C   0  0  0  0  0  0  0  0  0  0  0  0
    2.0255   -1.5566    0.0000 C   0  0  0  0  0  0  0  0  0  0  0  0
    3.4722   -1.1599    0.0000 C   0  0  0  0  0  0  0  0  0  0  0  0
    4.0015    0.2435    0.0000 C   0  0  0  0  0  0  0  0  0  0  0  0
    3.1773    1.4968    0.0000 C   0  0  0  0  0  0  0  0  0  0  0  0
    4.1548    2.6345    0.0000 O   0  0  0  0  0  0  0  0  0  0  0  0
    1.6798    1.4095    0.0000 C   0  0  0  0  0  0  0  0  0  0  0  0
    2.0257    2.8691    0.0000 C   0  0  0  0  0  0  0  0  0  0  0  0
    1.0483    4.0069    0.0000 N   0  0  0  0  0  0  0  0  0  0  0  0
    1.8283    5.2881    0.0000 N   0  0  0  0  0  0  0  0  0  0  0  0
    3.2879    4.9422    0.0000 C   0  0  0  0  0  0  0  0  0  0  0  0
    3.4099    3.4472    0.0000 N   0  0  0  0  0  0  0  0  0  0  0  0
    2.1929    0.0000    0.0000 C   0  0  0  0  0  0  0  0  0  0  0  0
    1.6798   -1.4095    0.0000 C   0  0  0  0  0  0  0  0  0  0  0  0
    0.3808   -2.1595    0.0000 C   0  0  0  0  0  0  0  0  0  0  0  0
    0.2761   -3.6559    0.0000 O   0  0  0  0  0  0  0  0  0  0  0  0
   -1.0964   -1.8991    0.0000 C   0  0  0  0  0  0  0  0  0  0  0  0
   -2.0606   -0.7500    0.0000 C   0  0  0  0  0  0  0  0  0  0  0  0
   -2.0606    0.7500    0.0000 C   0  0  0  0  0  0  0  0  0  0  0  0
   -3.4701    1.2630    0.0000 O   0  0  0  0  0  0  0  0  0  0  0  0
   -1.0964    1.8991    0.0000 C   0  0  0  0  0  0  0  0  0  0  0  0
    0.3808    2.1595    0.0000 C   0  0  0  0  0  0  0  0  0  0  0  0
    5.4999    0.1737    0.0000 N   0  0  0  0  0  0  0  0  0  0  0  0
    6.4371    1.3449    0.0000 C   0  0  0  0  0  0  0  0  0  0  0  0
    7.9200    1.1189    0.0000 C   0  0  0  0  0  0  0  0  0  0  0  0
    8.8572    2.2901    0.0000 C   0  0  0  0  0  0  0  0  0  0  0  0
    8.3115    3.6873    0.0000 C   0  0  0  0  0  0  0  0  0  0  0  0
    9.2487    4.8585    0.0000 O   0  0  0  0  0  0  0  0  0  0  0  0
   10.7315    4.6325    0.0000 C   0  0  0  0  0  0  0  0  0  0  0  0
    6.8286    3.9133    0.0000 C   0  0  0  0  0  0  0  0  0  0  0  0
    6.2829    5.3106    0.0000 O   0  0  0  0  0  0  0  0  0  0  0  0
    7.2201    6.4817    0.0000 O   0  0  0  0  0  0  0  0  0  0  0  0
    6.6744    7.8790    0.0000 O   0  0  0  0  0  0  0  0  0  0  0  0
    7.6116    9.0502    0.0000 C   0  0  0  0  0  0  0  0  0  0  0  0
    9.0945    8.8241    0.0000 O   0  0  0  0  0  0  0  0  0  0  0  0
    7.0659   10.4474    0.0000 O   0  0  0  0  0  0  0  0  0  0  0  0
    5.8914    2.7421    0.0000 C   0  0  0  0  0  0  0  0  0  0  0  0
    5.8966   -1.2729    0.0000 C   0  0  0  0  0  0  0  0  0  0  0  0
    7.3000   -1.8023    0.0000 N   0  0  0  0  0  0  0  0  0  0  0  0
    7.5433   -3.2824    0.0000 C   0  0  0  0  0  0  0  0  0  0  0  0
    8.9468   -3.8118    0.0000 C   0  0  0  0  0  0  0  0  0  0  0  0
    9.1901   -5.2919    0.0000 C   0  0  0  0  0  0  0  0  0  0  0  0
   10.5935   -5.8213    0.0000 C   0  0  0  0  0  0  0  0  0  0  0  0
   11.7537   -4.8706    0.0000 C   0  0  0  0  0  0  0  0  0  0  0  0
   13.1572   -5.4000    0.0000 C   0  0  0  0  0  0  0  0  0  0  0  0
   13.4005   -6.8801    0.0000 C   0  0  0  0  0  0  0  0  0  0  0  0
   14.8040   -7.4095    0.0000 C   0  0  0  0  0  0  0  0  0  0  0  0
   15.9642   -6.4588    0.0000 C   0  0  0  0  0  0  0  0  0  0  0  0
   15.7209   -4.9786    0.0000 C   0  0  0  0  0  0  0  0  0  0  0  0
   14.3174   -4.4492    0.0000 C   0  0  0  0  0  0  0  0  0  0  0  0
   11.5105   -3.3905    0.0000 C   0  0  0  0  0  0  0  0  0  0  0  0
   10.1070   -2.8611    0.0000 C   0  0  0  0  0  0  0  0  0  0  0  0
    9.8637   -1.3809    0.0000 O   0  0  0  0  0  0  0  0  0  0  0  0
   11.0239   -0.4302    0.0000 C   0  0  0  0  0  0  0  0  0  0  0  0
    4.6433   -2.0971    0.0000 N   0  0  0  0  0  0  0  0  0  0  0  0
    1.6458   -3.0077    0.0000 C   0  0  0  0  0  0  0  0  0  0  0  0
    0.1991   -3.4044    0.0000 C   0  0  0  0  0  0  0  0  0  0  0  0
  1  2  1  0
  2  3  1  0
  3  4  2  0
  4  5  1  0
  5  6  2  0
  6  7  1  0
  7  8  2  0
  8  9  1  0
  9 10  2  0
  9 11  1  0
 11 12  1  0
 12 13  2  0
 13 14  1  0
 14 15  2  0
 15 16  2  0
 11 17  1  0
 17 18  1  0
 18 19  1  0
 19 20  2  0
 19 21  1  0
 21 22  1  0
 22 23  1  0
 23 24  2  0
 23 25  1  0
 25 26  1  0
  8 27  1  0
 27 28  1  0
 28 29  2  0
 29 30  1  0
 30 31  2  0
 31 32  1  0
 32 33  1  0
 31 34  1  0
 34 35  1  0
 35 36  1  0
 36 37  1  0
 37 38  1  0
 38 39  2  0
 38 40  1  0
 34 41  2  0
 27 42  1  0
 42 43  1  0
 43 44  1  0
 44 45  1  0
 45 46  2  0
 46 47  1  0
 47 48  2  0
 48 49  1  0
 49 50  2  0
 50 51  1  0
 51 52  2  0
 52 53  1  0
 53 54  2  0
 48 55  1  0
 55 56  2  0
 56 57  1  0
 57 58  1  0
 42 59  2  0
  6 60  1  0
 60 61  2  0
 61  3  1  0
 59  7  1  0
 26 11  1  0
 41 28  1  0
 56 45  1  0
 16 12  1  0
 54 49  1  0
M  END
$$$$
