
     RDKit          2D

 23 25  0  0  0  0  0  0  0  0999 V2000
    2.8730   -1.5816    0.0000 C   0  0  0  0  0  0  0  0  0  0  0  0
    1.3858   -1.3858    0.0000 C   0  0  0  0  0  0  0  0  0  0  0  0
    1.5816   -2.8730    0.0000 C   0  0  0  0  0  0  0  0  0  0  0  0
    2.8998   -3.5887    0.0000 N   0  0  0  0  0  0  0  0  0  0  0  0
    2.6265   -5.0636    0.0000 N   0  0  0  0  0  0  0  0  0  0  0  0
    3.6590   -6.1517    0.0000 C   0  0  0  0  0  0  0  0  0  0  0  0
    3.2330   -7.5899    0.0000 C   0  0  0  0  0  0  0  0  0  0  0  0
    4.2655   -8.6780    0.0000 C   0  0  0  0  0  0  0  0  0  0  0  0
    5.7241   -8.3278    0.0000 C   0  0  0  0  0  0  0  0  0  0  0  0
    6.1501   -6.8896    0.0000 C   0  0  0  0  0  0  0  0  0  0  0  0
    5.1176   -5.8015    0.0000 C   0  0  0  0  0  0  0  0  0  0  0  0
    1.1393   -5.2594    0.0000 C   0  0  0  0  0  0  0  0  0  0  0  0
    0.4236   -6.5776    0.0000 C   0  0  0  0  0  0  0  0  0  0  0  0
    1.2073   -7.8566    0.0000 O   0  0  0  0  0  0  0  0  0  0  0  0
   -1.0759   -6.6169    0.0000 O   0  0  0  0  0  0  0  0  0  0  0  0
    0.4935   -3.9055    0.0000 N   0  0  0  0  0  0  0  0  0  0  0  0
    1.9598    0.0000    0.0000 C   0  0  0  0  0  0  0  0  0  0  0  0
    1.3858    1.3858    0.0000 C   0  0  0  0  0  0  0  0  0  0  0  0
    0.0000    1.9598    0.0000 C   0  0  0  0  0  0  0  0  0  0  0  0
   -1.3858    1.3858    0.0000 C   0  0  0  0  0  0  0  0  0  0  0  0
   -1.9598    0.0000    0.0000 C   0  0  0  0  0  0  0  0  0  0  0  0
   -1.3858   -1.3858    0.0000 C   0  0  0  0  0  0  0  0  0  0  0  0
   -0.0000   -1.9598    0.0000 C   0  0  0  0  0  0  0  0  0  0  0  0
  1  2  1  0
  2  3  1  0
  3  4  2  0
  4  5  1  0
  5  6  1  0
  6  7  2  0
  7  8  1  0
  8  9  2  0
  9 10  1  0
 10 11  2  0
  5 12  1  0
 12 13  1  0
 13 14  2  0
 13 15  1  0
 12 16  2  0
  2 17  1  0
 17 18  1  0
 18 19  1  0
 19 20  1  0
 20 21  1  0
 21 22  1  0
 22 23  1  0
 23  2  1  0
 16  3  1  0
 11  6  1  0
M  END
$$$$
