
     RDKit          2D

 23 25  0  0  0  0  0  0  0  0999 V2000
   10.4536   -1.0434    0.0000 C   0  0  0  0  0  0  0  0  0  0  0  0
    9.1955   -0.2265    0.0000 C   0  0  0  0  0  0  0  0  0  0  0  0
    7.8590   -0.9075    0.0000 C   0  0  0  0  0  0  0  0  0  0  0  0
    6.6010   -0.0905    0.0000 C   0  0  0  0  0  0  0  0  0  0  0  0
    5.2645   -0.7715    0.0000 C   0  0  0  0  0  0  0  0  0  0  0  0
    5.0299   -2.2530    0.0000 C   0  0  0  0  0  0  0  0  0  0  0  0
    3.5483   -2.4877    0.0000 N   0  0  0  0  0  0  0  0  0  0  0  0
    2.4877   -3.5483    0.0000 C   0  0  0  0  0  0  0  0  0  0  0  0
    2.7223   -5.0299    0.0000 O   0  0  0  0  0  0  0  0  0  0  0  0
    1.1512   -2.8674    0.0000 C   0  0  0  0  0  0  0  0  0  0  0  0
    1.3858   -1.3858    0.0000 C   0  0  0  0  0  0  0  0  0  0  0  0
    1.9598    0.0000    0.0000 C   0  0  0  0  0  0  0  0  0  0  0  0
    1.3858    1.3858    0.0000 C   0  0  0  0  0  0  0  0  0  0  0  0
    0.0000    1.9598    0.0000 C   0  0  0  0  0  0  0  0  0  0  0  0
   -1.3858    1.3858    0.0000 C   0  0  0  0  0  0  0  0  0  0  0  0
   -1.9598    0.0000    0.0000 C   0  0  0  0  0  0  0  0  0  0  0  0
   -1.3858   -1.3858    0.0000 C   0  0  0  0  0  0  0  0  0  0  0  0
   -2.4465   -2.4465    0.0000 C   0  0  0  0  0  0  0  0  0  0  0  0
   -2.0583   -3.8954    0.0000 O   0  0  0  0  0  0  0  0  0  0  0  0
   -3.8954   -2.0583    0.0000 O   0  0  0  0  0  0  0  0  0  0  0  0
   -0.0000   -1.9598    0.0000 C   0  0  0  0  0  0  0  0  0  0  0  0
    2.8674   -1.1512    0.0000 C   0  0  0  0  0  0  0  0  0  0  0  0
    3.9280   -0.0905    0.0000 N   0  0  0  0  0  0  0  0  0  0  0  0
  1  2  1  0
  2  3  1  0
  3  4  1  0
  4  5  1  0
  5  6  2  0
  6  7  1  0
  7  8  1  0
  8  9  2  0
  8 10  1  0
 10 11  1  0
 11 12  1  0
 12 13  1  0
 13 14  1  0
 14 15  1  0
 15 16  1  0
 16 17  1  0
 17 18  1  0
 18 19  2  0
 18 20  1  0
 17 21  1  0
 11 22  1  0
 22 23  2  0
 23  5  1  0
 22  7  1  0
 21 11  1  0
M  END
$$$$
