
     RDKit          2D

 54 61  0  0  0  0  0  0  0  0999 V2000
    7.5865   -5.7577    0.0000 C   0  0  0  0  0  0  0  0  0  0  0  0
    7.0490   -4.3574    0.0000 C   0  0  0  0  0  0  0  0  0  0  0  0
    5.5674   -4.1227    0.0000 C   0  0  0  0  0  0  0  0  0  0  0  0
    5.0299   -2.7223    0.0000 C   0  0  0  0  0  0  0  0  0  0  0  0
    3.5483   -2.4877    0.0000 N   0  0  0  0  0  0  0  0  0  0  0  0
    2.8674   -1.1512    0.0000 C   0  0  0  0  0  0  0  0  0  0  0  0
    3.5483    0.1853    0.0000 N   0  0  0  0  0  0  0  0  0  0  0  0
    5.0463    0.2638    0.0000 C   0  0  0  0  0  0  0  0  0  0  0  0
    5.8632   -0.9942    0.0000 O   0  0  0  0  0  0  0  0  0  0  0  0
    5.7273    1.6004    0.0000 N   0  0  0  0  0  0  0  0  0  0  0  0
    7.2252    1.6789    0.0000 C   0  0  0  0  0  0  0  0  0  0  0  0
    7.9062    3.0154    0.0000 C   0  0  0  0  0  0  0  0  0  0  0  0
    7.0892    4.2734    0.0000 C   0  0  0  0  0  0  0  0  0  0  0  0
    5.5913    4.1949    0.0000 C   0  0  0  0  0  0  0  0  0  0  0  0
    4.9103    2.8584    0.0000 C   0  0  0  0  0  0  0  0  0  0  0  0
    1.3858   -1.3858    0.0000 C   0  0  0  0  0  0  0  0  0  0  0  0
    1.9598    0.0000    0.0000 C   0  0  0  0  0  0  0  0  0  0  0  0
    1.3858    1.3858    0.0000 C   0  0  0  0  0  0  0  0  0  0  0  0
    0.0000    1.9598    0.0000 C   0  0  0  0  0  0  0  0  0  0  0  0
   -1.3858    1.3858    0.0000 C   0  0  0  0  0  0  0  0  0  0  0  0
   -1.9598    0.0000    0.0000 C   0  0  0  0  0  0  0  0  0  0  0  0
   -1.3858   -1.3858    0.0000 C   0  0  0  0  0  0  0  0  0  0  0  0
   -0.0000   -1.9598    0.0000 C   0  0  0  0  0  0  0  0  0  0  0  0
    1.1512   -2.8674    0.0000 C   0  0  0  0  0  0  0  0  0  0  0  0
    2.4877   -3.5483    0.0000 C   0  0  0  0  0  0  0  0  0  0  0  0
    2.7223   -5.0299    0.0000 C   0  0  0  0  0  0  0  0  0  0  0  0
    1.5566   -5.9739    0.0000 C   0  0  0  0  0  0  0  0  0  0  0  0
    1.7913   -7.4554    0.0000 C   0  0  0  0  0  0  0  0  0  0  0  0
    3.1916   -7.9929    0.0000 C   0  0  0  0  0  0  0  0  0  0  0  0
    3.4263   -9.4745    0.0000 N   0  0  0  0  0  0  0  0  0  0  0  0
    4.8267  -10.0120    0.0000 C   0  0  0  0  0  0  0  0  0  0  0  0
    5.9924   -9.0680    0.0000 N   0  0  0  0  0  0  0  0  0  0  0  0
    7.3927   -9.6056    0.0000 C   0  0  0  0  0  0  0  0  0  0  0  0
    7.6274  -11.0871    0.0000 C   0  0  0  0  0  0  0  0  0  0  0  0
    6.4617  -12.0311    0.0000 C   0  0  0  0  0  0  0  0  0  0  0  0
    6.6963  -13.5126    0.0000 C   0  0  0  0  0  0  0  0  0  0  0  0
    8.0967  -14.0502    0.0000 C   0  0  0  0  0  0  0  0  0  0  0  0
    8.3314  -15.5317    0.0000 C   0  0  0  0  0  0  0  0  0  0  0  0
    7.1656  -16.4757    0.0000 C   0  0  0  0  0  0  0  0  0  0  0  0
    7.4003  -17.9572    0.0000 C   0  0  0  0  0  0  0  0  0  0  0  0
    8.8007  -18.4948    0.0000 C   0  0  0  0  0  0  0  0  0  0  0  0
    9.9664  -17.5508    0.0000 C   0  0  0  0  0  0  0  0  0  0  0  0
    9.7317  -16.0693    0.0000 C   0  0  0  0  0  0  0  0  0  0  0  0
   10.8974  -15.1253    0.0000 C   0  0  0  0  0  0  0  0  0  0  0  0
   10.8189  -13.6273    0.0000 N   0  0  0  0  0  0  0  0  0  0  0  0
   12.2193  -13.0898    0.0000 N   0  0  0  0  0  0  0  0  0  0  0  0
   13.1633  -14.2555    0.0000 N   0  0  0  0  0  0  0  0  0  0  0  0
   12.3463  -15.5135    0.0000 N   0  0  0  0  0  0  0  0  0  0  0  0
    9.2624  -13.1062    0.0000 C   0  0  0  0  0  0  0  0  0  0  0  0
    9.0278  -11.6247    0.0000 C   0  0  0  0  0  0  0  0  0  0  0  0
    5.7577   -7.5865    0.0000 C   0  0  0  0  0  0  0  0  0  0  0  0
    6.9234   -6.6425    0.0000 O   0  0  0  0  0  0  0  0  0  0  0  0
    4.3574   -7.0490    0.0000 C   0  0  0  0  0  0  0  0  0  0  0  0
    4.1227   -5.5674    0.0000 C   0  0  0  0  0  0  0  0  0  0  0  0
  1  2  1  0
  2  3  1  0
  3  4  1  0
  4  5  1  0
  5  6  1  0
  6  7  2  3
  7  8  1  0
  8  9  2  0
  8 10  1  0
 10 11  1  0
 11 12  1  0
 12 13  1  0
 13 14  1  0
 14 15  1  0
  6 16  1  0
 16 17  1  0
 17 18  1  0
 18 19  1  0
 19 20  1  0
 20 21  1  0
 21 22  1  0
 22 23  1  0
 16 24  1  0
 24 25  1  0
 25 26  1  0
 26 27  2  0
 27 28  1  0
 28 29  2  0
 29 30  1  0
 30 31  2  0
 31 32  1  0
 32 33  1  0
 33 34  1  0
 34 35  2  0
 35 36  1  0
 36 37  2  0
 37 38  1  0
 38 39  2  0
 39 40  1  0
 40 41  2  0
 41 42  1  0
 42 43  2  0
 43 44  1  0
 44 45  2  0
 45 46  1  0
 46 47  2  0
 47 48  1  0
 37 49  1  0
 49 50  2  0
 32 51  1  0
 51 52  2  0
 51 53  1  0
 53 54  2  0
 25  5  1  0
 54 26  1  0
 15 10  1  0
 23 16  1  0
 53 29  1  0
 50 34  1  0
 43 38  1  0
 48 44  1  0
M  END
$$$$
