
     RDKit          2D

 57 62  0  0  0  0  0  0  0  0999 V2000
   13.6825   -5.7730    0.0000 C   0  0  0  0  0  0  0  0  0  0  0  0
   12.4690   -6.6547    0.0000 C   0  0  0  0  0  0  0  0  0  0  0  0
   11.0986   -6.0446    0.0000 C   0  0  0  0  0  0  0  0  0  0  0  0
    9.8851   -6.9263    0.0000 C   0  0  0  0  0  0  0  0  0  0  0  0
    8.5148   -6.3162    0.0000 C   0  0  0  0  0  0  0  0  0  0  0  0
    7.3013   -7.1978    0.0000 C   0  0  0  0  0  0  0  0  0  0  0  0
    5.9310   -6.5877    0.0000 C   0  0  0  0  0  0  0  0  0  0  0  0
    5.7742   -5.0959    0.0000 C   0  0  0  0  0  0  0  0  0  0  0  0
    4.8925   -3.8824    0.0000 C   0  0  0  0  0  0  0  0  0  0  0  0
    6.3843   -3.7256    0.0000 C   0  0  0  0  0  0  0  0  0  0  0  0
    7.5978   -2.8440    0.0000 C   0  0  0  0  0  0  0  0  0  0  0  0
    7.4410   -1.3522    0.0000 C   0  0  0  0  0  0  0  0  0  0  0  0
    8.6545   -0.4705    0.0000 C   0  0  0  0  0  0  0  0  0  0  0  0
    6.0707   -0.7421    0.0000 C   0  0  0  0  0  0  0  0  0  0  0  0
    4.7174   -7.4694    0.0000 N   0  0  0  0  0  0  0  0  0  0  0  0
    4.7174   -8.9694    0.0000 C   0  0  0  0  0  0  0  0  0  0  0  0
    5.9310   -9.8511    0.0000 O   0  0  0  0  0  0  0  0  0  0  0  0
    3.2909   -9.4329    0.0000 N   0  0  0  0  0  0  0  0  0  0  0  0
    2.8273  -10.8595    0.0000 C   0  0  0  0  0  0  0  0  0  0  0  0
    1.3601  -11.1714    0.0000 C   0  0  0  0  0  0  0  0  0  0  0  0
    0.8966  -12.5980    0.0000 C   0  0  0  0  0  0  0  0  0  0  0  0
   -0.5706  -12.9098    0.0000 C   0  0  0  0  0  0  0  0  0  0  0  0
    2.4092   -8.2194    0.0000 C   0  0  0  0  0  0  0  0  0  0  0  0
    0.9092   -8.2194    0.0000 O   0  0  0  0  0  0  0  0  0  0  0  0
    3.2909   -7.0059    0.0000 C   0  0  0  0  0  0  0  0  0  0  0  0
    2.8273   -5.5793    0.0000 C   0  0  0  0  0  0  0  0  0  0  0  0
    1.3601   -5.2674    0.0000 C   0  0  0  0  0  0  0  0  0  0  0  0
    0.2454   -6.2711    0.0000 C   0  0  0  0  0  0  0  0  0  0  0  0
   -1.0537   -5.5211    0.0000 N   0  0  0  0  0  0  0  0  0  0  0  0
   -0.7418   -4.0539    0.0000 C   0  0  0  0  0  0  0  0  0  0  0  0
   -1.7455   -2.9392    0.0000 C   0  0  0  0  0  0  0  0  0  0  0  0
   -3.2127   -3.2511    0.0000 C   0  0  0  0  0  0  0  0  0  0  0  0
   -4.2164   -2.1363    0.0000 C   0  0  0  0  0  0  0  0  0  0  0  0
   -5.6836   -2.4482    0.0000 C   0  0  0  0  0  0  0  0  0  0  0  0
    0.7500   -3.8971    0.0000 N   0  0  0  0  0  0  0  0  0  0  0  0
    1.5000   -2.5981    0.0000 C   0  0  0  0  0  0  0  0  0  0  0  0
    0.7500   -1.2990    0.0000 C   0  0  0  0  0  0  0  0  0  0  0  0
    1.5000    0.0000    0.0000 C   0  0  0  0  0  0  0  0  0  0  0  0
    0.7500    1.2990    0.0000 C   0  0  0  0  0  0  0  0  0  0  0  0
   -0.7500    1.2990    0.0000 C   0  0  0  0  0  0  0  0  0  0  0  0
   -1.5000    2.5981    0.0000 C   0  0  0  0  0  0  0  0  0  0  0  0
   -0.7500    3.8971    0.0000 C   0  0  0  0  0  0  0  0  0  0  0  0
   -1.5000    5.1962    0.0000 C   0  0  0  0  0  0  0  0  0  0  0  0
   -3.0000    5.1962    0.0000 C   0  0  0  0  0  0  0  0  0  0  0  0
   -3.7500    3.8971    0.0000 C   0  0  0  0  0  0  0  0  0  0  0  0
   -3.0000    2.5981    0.0000 C   0  0  0  0  0  0  0  0  0  0  0  0
   -3.7500    1.2990    0.0000 C   0  0  0  0  0  0  0  0  0  0  0  0
   -3.1399   -0.0713    0.0000 N   0  0  0  0  0  0  0  0  0  0  0  0
   -4.2546   -1.0750    0.0000 N   0  0  0  0  0  0  0  0  0  0  0  0
   -5.5537   -0.3250    0.0000 N   0  0  0  0  0  0  0  0  0  0  0  0
   -5.2418    1.1422    0.0000 N   0  0  0  0  0  0  0  0  0  0  0  0
   -1.5000    0.0000    0.0000 C   0  0  0  0  0  0  0  0  0  0  0  0
   -0.7500   -1.2990    0.0000 C   0  0  0  0  0  0  0  0  0  0  0  0
   10.0419   -8.4180    0.0000 N   0  0  0  0  0  0  0  0  0  0  0  0
   11.4122   -9.0282    0.0000 C   0  0  0  0  0  0  0  0  0  0  0  0
   11.5690  -10.5199    0.0000 C   0  0  0  0  0  0  0  0  0  0  0  0
   12.6258   -8.1465    0.0000 O   0  0  0  0  0  0  0  0  0  0  0  0
  1  2  1  0
  2  3  1  0
  3  4  2  3
  4  5  1  0
  5  6  1  0
  6  7  2  3
  7  8  1  0
  8  9  2  0
  9 10  2  0
 10 11  1  0
 11 12  2  0
 12 13  1  0
 12 14  1  0
  7 15  1  0
 15 16  1  0
 16 17  2  0
 16 18  1  0
 18 19  1  0
 19 20  1  0
 20 21  1  0
 21 22  1  0
 18 23  1  0
 23 24  2  0
 23 25  1  0
 25 26  2  3
 26 27  1  0
 27 28  2  0
 28 29  1  0
 29 30  2  0
 30 31  1  0
 31 32  1  0
 32 33  1  0
 33 34  1  0
 30 35  1  0
 35 36  1  0
 36 37  1  0
 37 38  2  0
 38 39  1  0
 39 40  2  0
 40 41  1  0
 41 42  2  0
 42 43  1  0
 43 44  2  0
 44 45  1  0
 45 46  2  0
 46 47  1  0
 47 48  2  0
 48 49  1  0
 49 50  2  0
 50 51  1  0
 40 52  1  0
 52 53  2  0
  4 54  1  0
 54 55  1  0
 55 56  1  0
 55 57  2  0
 10  8  1  0
 25 15  1  0
 35 27  1  0
 53 37  1  0
 46 41  1  0
 51 47  1  0
M  END
$$$$
