
     RDKit          2D

 31 33  0  0  0  0  0  0  0  0999 V2000
    3.0000    0.0000    0.0000 N   0  0  0  0  0  0  0  0  0  0  0  0
    3.7500    1.2990    0.0000 C   0  0  0  0  0  0  0  0  0  0  0  0
    5.2500    1.2990    0.0000 C   0  0  0  0  0  0  0  0  0  0  0  0
    6.0000    2.5981    0.0000 C   0  0  0  0  0  0  0  0  0  0  0  0
    5.2500    3.8971    0.0000 C   0  0  0  0  0  0  0  0  0  0  0  0
    3.7500    3.8971    0.0000 C   0  0  0  0  0  0  0  0  0  0  0  0
    3.0000    5.1962    0.0000 Cl  0  0  0  0  0  0  0  0  0  0  0  0
    3.0000    2.5981    0.0000 C   0  0  0  0  0  0  0  0  0  0  0  0
    1.5000    2.5981    0.0000 S   0  0  0  0  0  0  0  0  0  0  0  0
    0.7500    3.8971    0.0000 C   0  0  0  0  0  0  0  0  0  0  0  0
   -0.4635    3.0154    0.0000 C   0  0  0  0  0  0  0  0  0  0  0  0
   -0.3067    1.5237    0.0000 O   0  0  0  0  0  0  0  0  0  0  0  0
   -1.8338    3.6255    0.0000 O   0  0  0  0  0  0  0  0  0  0  0  0
   -3.0474    2.7439    0.0000 C   0  0  0  0  0  0  0  0  0  0  0  0
   -4.4177    3.3540    0.0000 C   0  0  0  0  0  0  0  0  0  0  0  0
   -5.6312    2.4723    0.0000 C   0  0  0  0  0  0  0  0  0  0  0  0
   -7.0015    3.0824    0.0000 C   0  0  0  0  0  0  0  0  0  0  0  0
   -8.2151    2.2007    0.0000 C   0  0  0  0  0  0  0  0  0  0  0  0
   -8.0583    0.7089    0.0000 O   0  0  0  0  0  0  0  0  0  0  0  0
   -9.5854    2.8108    0.0000 N   0  0  0  0  0  0  0  0  0  0  0  0
  -10.7989    1.9291    0.0000 C   0  0  0  0  0  0  0  0  0  0  0  0
  -12.1692    2.5392    0.0000 C   0  0  0  0  0  0  0  0  0  0  0  0
  -13.3827    1.6576    0.0000 C   0  0  0  0  0  0  0  0  0  0  0  0
  -13.2260    0.1658    0.0000 C   0  0  0  0  0  0  0  0  0  0  0  0
  -11.8556   -0.4443    0.0000 C   0  0  0  0  0  0  0  0  0  0  0  0
  -10.6421    0.4374    0.0000 C   0  0  0  0  0  0  0  0  0  0  0  0
   -0.2537    5.0118    0.0000 C   0  0  0  0  0  0  0  0  0  0  0  0
    0.4963    6.3109    0.0000 C   0  0  0  0  0  0  0  0  0  0  0  0
    1.9635    5.9990    0.0000 C   0  0  0  0  0  0  0  0  0  0  0  0
    3.0782    7.0027    0.0000 O   0  0  0  0  0  0  0  0  0  0  0  0
    2.1203    4.5072    0.0000 N   0  0  0  0  0  0  0  0  0  0  0  0
  1  2  1  0
  2  3  2  0
  3  4  1  0
  4  5  2  0
  5  6  1  0
  6  7  1  0
  6  8  2  0
  8  9  1  0
  9 10  1  0
 10 11  1  0
 11 12  2  0
 11 13  1  0
 13 14  1  0
 14 15  1  0
 15 16  1  0
 16 17  1  0
 17 18  1  0
 18 19  2  0
 18 20  1  0
 20 21  1  0
 21 22  2  0
 22 23  1  0
 23 24  2  0
 24 25  1  0
 25 26  2  0
 10 27  1  0
 27 28  1  0
 28 29  1  0
 29 30  2  0
 29 31  1  0
  8  2  1  0
 31 10  1  0
 26 21  1  0
M  END
$$$$
