
     RDKit          2D

 40 44  0  0  0  0  0  0  0  0999 V2000
    4.1621    0.0000    0.0000 C   0  0  0  0  0  0  0  0  0  0  0  0
    2.6621    0.0000    0.0000 C   0  0  0  0  0  0  0  0  0  0  0  0
    2.2395    1.4392    0.0000 N   0  0  0  0  0  0  0  0  0  0  0  0
    1.1059    2.4215    0.0000 C   0  0  0  0  0  0  0  0  0  0  0  0
   -0.3789    2.6350    0.0000 N   0  0  0  0  0  0  0  0  0  0  0  0
   -1.7433    2.0119    0.0000 N   0  0  0  0  0  0  0  0  0  0  0  0
   -2.5543    0.7500    0.0000 N   0  0  0  0  0  0  0  0  0  0  0  0
   -2.5543   -0.7500    0.0000 N   0  0  0  0  0  0  0  0  0  0  0  0
   -1.7433   -2.0119    0.0000 C   0  0  0  0  0  0  0  0  0  0  0  0
   -2.7256   -3.1455    0.0000 C   0  0  0  0  0  0  0  0  0  0  0  0
   -4.1985   -2.8616    0.0000 C   0  0  0  0  0  0  0  0  0  0  0  0
   -5.1808   -3.9953    0.0000 C   0  0  0  0  0  0  0  0  0  0  0  0
   -4.6902   -5.4128    0.0000 C   0  0  0  0  0  0  0  0  0  0  0  0
   -3.2173   -5.6966    0.0000 C   0  0  0  0  0  0  0  0  0  0  0  0
   -2.2350   -4.5630    0.0000 C   0  0  0  0  0  0  0  0  0  0  0  0
   -0.7621   -4.8469    0.0000 N   0  0  0  0  0  0  0  0  0  0  0  0
   -0.3789   -2.6350    0.0000 C   0  0  0  0  0  0  0  0  0  0  0  0
    1.1059   -2.4215    0.0000 N   0  0  0  0  0  0  0  0  0  0  0  0
    1.7290   -3.7860    0.0000 C   0  0  0  0  0  0  0  0  0  0  0  0
    0.8589   -5.0078    0.0000 C   0  0  0  0  0  0  0  0  0  0  0  0
    1.4820   -6.3723    0.0000 C   0  0  0  0  0  0  0  0  0  0  0  0
    2.9752   -6.5149    0.0000 C   0  0  0  0  0  0  0  0  0  0  0  0
    3.5984   -7.8793    0.0000 C   0  0  0  0  0  0  0  0  0  0  0  0
    2.7283   -9.1012    0.0000 N   0  0  0  0  0  0  0  0  0  0  0  0
    1.2283   -9.1155    0.0000 C   0  0  0  0  0  0  0  0  0  0  0  0
    0.3352   -7.9104    0.0000 C   0  0  0  0  0  0  0  0  0  0  0  0
   -1.1551   -8.0814    0.0000 C   0  0  0  0  0  0  0  0  0  0  0  0
    0.7784  -10.5464    0.0000 N   0  0  0  0  0  0  0  0  0  0  0  0
    2.0003  -11.4165    0.0000 C   0  0  0  0  0  0  0  0  0  0  0  0
    2.1713  -12.9067    0.0000 C   0  0  0  0  0  0  0  0  0  0  0  0
    0.9662  -13.7999    0.0000 C   0  0  0  0  0  0  0  0  0  0  0  0
    3.5473  -13.5037    0.0000 C   0  0  0  0  0  0  0  0  0  0  0  0
    4.7524  -12.6105    0.0000 C   0  0  0  0  0  0  0  0  0  0  0  0
    6.1285  -13.2076    0.0000 C   0  0  0  0  0  0  0  0  0  0  0  0
    4.5814  -11.1203    0.0000 N   0  0  0  0  0  0  0  0  0  0  0  0
    3.2054  -10.5233    0.0000 C   0  0  0  0  0  0  0  0  0  0  0  0
    3.8453   -5.2930    0.0000 C   0  0  0  0  0  0  0  0  0  0  0  0
    3.2222   -3.9286    0.0000 C   0  0  0  0  0  0  0  0  0  0  0  0
    2.2395   -1.4392    0.0000 C   0  0  0  0  0  0  0  0  0  0  0  0
    3.5014   -2.2502    0.0000 O   0  0  0  0  0  0  0  0  0  0  0  0
  1  2  2  0
  2  3  1  0
  3  4  1  0
  4  5  2  3
  5  6  1  0
  6  7  2  3
  7  8  1  0
  8  9  2  3
  9 10  1  0
 10 11  2  0
 11 12  1  0
 12 13  2  0
 13 14  1  0
 14 15  2  0
 15 16  1  0
  9 17  1  0
 17 18  1  0
 18 19  1  0
 19 20  2  0
 20 21  1  0
 21 22  2  0
 22 23  1  0
 23 24  1  0
 24 25  1  0
 25 26  1  0
 26 27  1  0
 25 28  2  0
 28 29  1  0
 29 30  2  0
 30 31  1  0
 30 32  1  0
 32 33  2  0
 33 34  1  0
 33 35  1  0
 35 36  2  0
 22 37  1  0
 37 38  2  0
 18 39  1  0
 39 40  2  0
 39  2  1  0
 15 10  1  0
 38 19  1  0
 36 24  1  0
 36 29  1  0
M  END
$$$$
