
     RDKit          2D

 27 29  0  0  0  0  0  0  0  0999 V2000
    5.7718   -2.1766    0.0000 O   0  0  0  0  0  0  0  0  0  0  0  0
    4.2718   -2.1766    0.0000 C   0  0  0  0  0  0  0  0  0  0  0  0
    3.3901   -0.9631    0.0000 C   0  0  0  0  0  0  0  0  0  0  0  0
    1.9635   -1.4266    0.0000 C   0  0  0  0  0  0  0  0  0  0  0  0
    2.4271    0.0000    0.0000 C   0  0  0  0  0  0  0  0  0  0  0  0
    1.9635    1.4266    0.0000 C   0  0  0  0  0  0  0  0  0  0  0  0
    0.7500    2.3083    0.0000 C   0  0  0  0  0  0  0  0  0  0  0  0
   -0.7500    2.3083    0.0000 C   0  0  0  0  0  0  0  0  0  0  0  0
   -1.9635    1.4266    0.0000 C   0  0  0  0  0  0  0  0  0  0  0  0
   -2.4271    0.0000    0.0000 C   0  0  0  0  0  0  0  0  0  0  0  0
   -1.9635   -1.4266    0.0000 C   0  0  0  0  0  0  0  0  0  0  0  0
   -0.7500   -2.3083    0.0000 C   0  0  0  0  0  0  0  0  0  0  0  0
    0.7500   -2.3083    0.0000 C   0  0  0  0  0  0  0  0  0  0  0  0
    1.9635   -2.9266    0.0000 C   0  0  0  0  0  0  0  0  0  0  0  0
    0.7500   -3.8083    0.0000 C   0  0  0  0  0  0  0  0  0  0  0  0
    0.9068   -5.3000    0.0000 C   0  0  0  0  0  0  0  0  0  0  0  0
    2.2771   -5.9102    0.0000 O   0  0  0  0  0  0  0  0  0  0  0  0
   -0.3067   -6.1817    0.0000 O   0  0  0  0  0  0  0  0  0  0  0  0
   -0.1499   -7.6735    0.0000 C   0  0  0  0  0  0  0  0  0  0  0  0
   -1.3635   -8.5552    0.0000 C   0  0  0  0  0  0  0  0  0  0  0  0
   -1.2067  -10.0470    0.0000 C   0  0  0  0  0  0  0  0  0  0  0  0
   -2.4202  -10.9286    0.0000 C   0  0  0  0  0  0  0  0  0  0  0  0
   -2.2634  -12.4204    0.0000 C   0  0  0  0  0  0  0  0  0  0  0  0
   -0.8931  -13.0305    0.0000 C   0  0  0  0  0  0  0  0  0  0  0  0
    0.3204  -12.1489    0.0000 C   0  0  0  0  0  0  0  0  0  0  0  0
    0.1636  -10.6571    0.0000 C   0  0  0  0  0  0  0  0  0  0  0  0
    3.3901   -3.3901    0.0000 N   0  0  0  0  0  0  0  0  0  0  0  0
  1  2  2  0
  2  3  1  0
  3  4  1  0
  4  5  1  0
  5  6  1  0
  6  7  1  0
  7  8  1  0
  8  9  1  0
  9 10  1  0
 10 11  1  0
 11 12  1  0
 12 13  1  0
  4 14  1  0
 14 15  2  3
 15 16  1  0
 16 17  2  0
 16 18  1  0
 18 19  1  0
 19 20  1  0
 20 21  1  0
 21 22  2  0
 22 23  1  0
 23 24  2  0
 24 25  1  0
 25 26  2  0
 14 27  1  0
 27  2  1  0
 13  4  1  0
 26 21  1  0
M  END
$$$$
