
     RDKit          2D

 27 29  0  0  0  0  0  0  0  0999 V2000
    4.0808   -5.0249    0.0000 C   0  0  0  0  0  0  0  0  0  0  0  0
    3.9240   -3.5332    0.0000 C   0  0  0  0  0  0  0  0  0  0  0  0
    2.5537   -2.9231    0.0000 C   0  0  0  0  0  0  0  0  0  0  0  0
    2.2418   -1.4558    0.0000 N   0  0  0  0  0  0  0  0  0  0  0  0
    0.7500   -1.2990    0.0000 S   0  0  0  0  0  0  0  0  0  0  0  0
   -0.1317   -0.0855    0.0000 O   0  0  0  0  0  0  0  0  0  0  0  0
    0.0581    0.9914    0.0000 C   0  0  0  0  0  0  0  0  0  0  0  0
    1.5000    0.0000    0.0000 N   0  0  0  0  0  0  0  0  0  0  0  0
    0.7500    1.2990    0.0000 C   0  0  0  0  0  0  0  0  0  0  0  0
    1.5000    2.5981    0.0000 O   0  0  0  0  0  0  0  0  0  0  0  0
    3.0000    2.5981    0.0000 C   0  0  0  0  0  0  0  0  0  0  0  0
   -0.7500    1.2990    0.0000 C   0  0  0  0  0  0  0  0  0  0  0  0
   -1.5000    0.0000    0.0000 C   0  0  0  0  0  0  0  0  0  0  0  0
   -3.0000    0.0000    0.0000 O   0  0  0  0  0  0  0  0  0  0  0  0
   -0.7500   -1.2990    0.0000 N   0  0  0  0  0  0  0  0  0  0  0  0
    0.1399   -2.6694    0.0000 C   0  0  0  0  0  0  0  0  0  0  0  0
   -0.7418   -3.8829    0.0000 C   0  0  0  0  0  0  0  0  0  0  0  0
   -1.1591   -1.9194    0.0000 C   0  0  0  0  0  0  0  0  0  0  0  0
   -1.5221   -0.4639    0.0000 O   0  0  0  0  0  0  0  0  0  0  0  0
   -2.4582   -2.6694    0.0000 N   0  0  0  0  0  0  0  0  0  0  0  0
   -3.7572   -1.9194    0.0000 C   0  0  0  0  0  0  0  0  0  0  0  0
   -3.7572   -0.4194    0.0000 C   0  0  0  0  0  0  0  0  0  0  0  0
   -5.0563    0.3306    0.0000 C   0  0  0  0  0  0  0  0  0  0  0  0
   -6.3553   -0.4194    0.0000 C   0  0  0  0  0  0  0  0  0  0  0  0
   -6.3553   -1.9194    0.0000 C   0  0  0  0  0  0  0  0  0  0  0  0
   -5.0563   -2.6694    0.0000 C   0  0  0  0  0  0  0  0  0  0  0  0
    1.2546   -3.6731    0.0000 C   0  0  0  0  0  0  0  0  0  0  0  0
  1  2  1  0
  2  3  1  0
  3  4  2  0
  4  5  1  0
  5  6  1  0
  6  7  1  0
  5  8  2  0
  8  9  1  0
  9 10  1  0
 10 11  1  0
  9 12  2  0
 12 13  1  0
 13 14  2  0
 13 15  1  0
  5 16  1  0
 16 17  1  0
 16 18  1  0
 18 19  2  0
 18 20  1  0
 20 21  1  0
 21 22  2  0
 22 23  1  0
 23 24  2  0
 24 25  1  0
 25 26  2  0
 16 27  1  0
 27  3  1  0
 15  5  1  0
 26 21  1  0
M  END
$$$$
