
     RDKit          2D

 38 42  0  0  0  0  0  0  0  0999 V2000
    0.4667   -0.3167    0.0000 C   0  0  0  0  0  0  0  0  0  0  0  0
   -0.2083   -0.8042    0.0000 N   0  0  0  0  0  0  0  0  0  0  0  0
    0.2042    0.4625    0.0000 C   0  0  0  0  0  0  0  0  0  0  0  0
   -0.6208    0.4625    0.0000 N   0  0  0  0  0  0  0  0  0  0  0  0
   -0.8708   -0.3250    0.0000 C   0  0  0  0  0  0  0  0  0  0  0  0
    3.3542   -2.0417    0.0000 C   0  0  0  0  0  0  0  0  0  0  0  0
    2.9417   -0.7792    0.0000 N   0  0  0  0  0  0  0  0  0  0  0  0
    2.6875   -1.5625    0.0000 N   0  0  0  0  0  0  0  0  0  0  0  0
    3.7667   -0.7750    0.0000 N   0  0  0  0  0  0  0  0  0  0  0  0
    4.0167   -1.5542    0.0000 N   0  0  0  0  0  0  0  0  0  0  0  0
    1.2500   -0.5750    0.0000 C   0  0  0  0  0  0  0  0  0  0  0  0
    3.3625   -2.8667    0.0000 C   0  0  0  0  0  0  0  0  0  0  0  0
    2.6500   -3.2792    0.0000 C   0  0  0  0  0  0  0  0  0  0  0  0
   -0.2083   -1.6292    0.0000 C   0  0  0  0  0  0  0  0  0  0  0  0
    0.6917    1.1333    0.0000 C   0  0  0  0  0  0  0  0  0  0  0  0
    1.9375   -2.8667    0.0000 C   0  0  0  0  0  0  0  0  0  0  0  0
    1.4042   -1.0292    0.0000 O   0  0  0  0  0  0  0  0  0  0  0  0
    1.9375   -2.0417    0.0000 C   0  0  0  0  0  0  0  0  0  0  0  0
    1.2292   -3.2792    0.0000 C   0  0  0  0  0  0  0  0  0  0  0  0
    0.5042   -2.0417    0.0000 C   0  0  0  0  0  0  0  0  0  0  0  0
    1.8625   -0.0250    0.0000 O   0  0  0  0  0  0  0  0  0  0  0  0
   -1.6583   -0.5792    0.0000 C   0  0  0  0  0  0  0  0  0  0  0  0
    0.5125   -2.8667    0.0000 C   0  0  0  0  0  0  0  0  0  0  0  0
    1.2250   -1.6292    0.0000 C   0  0  0  0  0  0  0  0  0  0  0  0
    4.0792   -3.2792    0.0000 C   0  0  0  0  0  0  0  0  0  0  0  0
    2.6500   -4.1042    0.0000 C   0  0  0  0  0  0  0  0  0  0  0  0
    0.3542    1.8833    0.0000 C   0  0  0  0  0  0  0  0  0  0  0  0
    1.5167    1.0458    0.0000 C   0  0  0  0  0  0  0  0  0  0  0  0
    2.6500   -0.2792    0.0000 C   0  0  0  0  0  0  0  0  0  0  0  0
   -2.2708   -0.0250    0.0000 C   0  0  0  0  0  0  0  0  0  0  0  0
   -3.0500   -0.2792    0.0000 C   0  0  0  0  0  0  0  0  0  0  0  0
    4.0792   -4.1042    0.0000 C   0  0  0  0  0  0  0  0  0  0  0  0
    3.3625   -4.5167    0.0000 C   0  0  0  0  0  0  0  0  0  0  0  0
    3.2625    0.2708    0.0000 C   0  0  0  0  0  0  0  0  0  0  0  0
   -3.6625    0.2708    0.0000 C   0  0  0  0  0  0  0  0  0  0  0  0
    0.8375    2.5458    0.0000 C   0  0  0  0  0  0  0  0  0  0  0  0
    2.0000    1.7083    0.0000 C   0  0  0  0  0  0  0  0  0  0  0  0
    1.6625    2.4625    0.0000 C   0  0  0  0  0  0  0  0  0  0  0  0
  2  1  1  0
  3  1  2  0
  4  3  1  0
  5  2  1  0
  6 12  1  0
  7  8  1  0
  8  6  2  0
  9 10  1  0
 10  6  1  0
 11  1  1  0
 12 13  1  0
 13 16  1  0
 14  2  1  0
 15  3  1  0
 16 18  2  0
 17 11  2  0
 18 24  1  0
 19 23  2  0
 20 14  1  0
 21 11  1  0
 22  5  1  0
 23 20  1  0
 24 20  2  0
 25 12  2  0
 26 13  2  0
 27 15  2  0
 28 15  1  0
 29 21  1  0
 30 22  1  0
 31 30  1  0
 32 33  2  0
 33 26  1  0
 34 29  1  0
 35 31  1  0
 36 27  1  0
 37 28  2  0
 38 37  1  0
  4  5  2  0
 36 38  2  0
 19 16  1  0
 32 25  1  0
  9  7  2  0
M  END
>  <From>  (1) 
www.bindingDB.org

>  <BindingDB Reactant_set_id>  (1) 
50061781

>  <Ligand InChI>  (1) 
InChI=1S/C30H30N6O2/c1-3-5-15-26-31-27(23-11-7-6-8-12-23)28(30(37)38-4-2)36(26)20-21-16-18-22(19-17-21)24-13-9-10-14-25(24)29-32-34-35-33-29/h6-14,16-19H,3-5,15,20H2,1-2H3,(H,32,33,34,35)

>  <Ligand InChI Key>  (1) 
CAQPCLVGHDITOR-UHFFFAOYSA-N

>  <BindingDB MonomerID>  (1) 
50042563

>  <BindingDB Ligand Name>  (1) 
2-Butyl-5-phenyl-3-[2'-(1H-tetrazol-5-yl)-biphenyl-4-ylmethyl]-3H-imidazole-4-carboxylic acid ethyl ester::CHEMBL334083

>  <Target Name>  (1) 
Type-1 angiotensin II receptor

>  <Target Source Organism According to Curator or DataSource>  (1) 
Oryctolagus cuniculus

>  <Ki (nM)>  (1) 


>  <IC50 (nM)>  (1) 
 41

>  <Kd (nM)>  (1) 


>  <EC50 (nM)>  (1) 


>  <kon (M-1-s-1)>  (1) 


>  <koff (s-1)>  (1) 


>  <pH>  (1) 


>  <Temp C>  (1) 


>  <Curation/DataSource>  (1) 
ChEMBL

>  <Article DOI>  (1) 
10.1021/jm00075a014

>  <BindingDB Entry DOI>  (1) 
10.7270/Q25Q4V5H

>  <PMID>  (1) 
8246227

>  <PubChem AID>  (1) 


>  <Patent Number>  (1) 


>  <Authors>  (1) 
Ashton, WT; Hutchins, SM; Greenlee, WJ; Doss, GA; Chang, RS; Lotti, VJ; Faust, KA; Chen, TB; Zingaro, GJ; Kivlighn, SD

>  <Institution>  (1) 
Merck Research Laboratories

>  <Link to Ligand in BindingDB>  (1) 
http://www.bindingdb.org/bind/chemsearch/marvin/MolStructure.jsp?monomerid=50042563

>  <Link to Ligand-Target Pair in BindingDB>  (1) 
http://www.bindingdb.org/jsp/dbsearch/PrimarySearch_ki.jsp?energyterm=kJ/mole&tag=r21&monomerid=50042563&enzyme=Type-1+angiotensin+II+receptor&column=ki&startPg=0&Increment=50&submit=Search

>  <Ligand HET ID in PDB>  (1) 


>  <PDB ID(s) for Ligand-Target Complex>  (1) 


>  <PubChem CID of Ligand>  (1) 
14971636

>  <PubChem SID of Ligand>  (1) 
103974159

>  <ChEBI ID of Ligand>  (1) 


>  <ChEMBL ID of Ligand>  (1) 
CHEMBL334083

>  <DrugBank ID of Ligand>  (1) 


>  <IUPHAR_GRAC ID of Ligand>  (1) 


>  <KEGG ID of Ligand>  (1) 


>  <ZINC ID of Ligand>  (1) 
ZINC13833898

>  <Number of Protein Chains in Target (bigger than 1 implies a multichain complex)>  (1) 
1

>  <BindingDB Target Chain Sequence>  (1) 
MMLNSSTEDGIKRIQDDCPKAGRHNYIFVMIPTLYSIIFVVGIFGNSLAVIVIYFYMKLKTVASVFLLNLALADLCFLLTLPLWAVYTAMEYRWPFGNYLCKIASASVSFNLYASVFLLTCLSIDRYLAIVHPMKSRLRRTMLVAKVTCIIIWLLAGLASLPAIIHRNVFFIENTNITVCAFHYESQNSTLPIGLGLTKNILGFLFPFLIILTSYTLIWKALKKAYEIQKNKPRNDDIFKIIMAIVLFFFFSWVPHQIFTFLDVLIQLGVIHDCRIADIVDTAMPITICIAYFNNCLNPLFYGFLGKKFKKYFLQLLKYIPPKAKSHSNLSTKMSTLSYRPSDNVSSSSKKPVPCFEVE

>  <PDB ID(s) of Target Chain>  (1) 
6DO1,6OS0,6OS1,6OS2

>  <UniProt (SwissProt) Recommended Name of Target Chain>  (1) 
Type-1 angiotensin II receptor

>  <UniProt (SwissProt) Entry Name of Target Chain>  (1) 
AGTR1_RABIT

>  <UniProt (SwissProt) Primary ID of Target Chain>  (1) 
P34976

>  <UniProt (SwissProt) Secondary ID(s) of Target Chain>  (1) 


>  <UniProt (SwissProt) Alternative ID(s) of Target Chain>  (1) 


>  <UniProt (TrEMBL) Submitted Name of Target Chain>  (1) 


>  <UniProt (TrEMBL) Entry Name of Target Chain>  (1) 


>  <UniProt (TrEMBL) Primary ID of Target Chain>  (1) 


>  <UniProt (TrEMBL) Secondary ID(s) of Target Chain>  (1) 


>  <UniProt (TrEMBL) Alternative ID(s) of Target Chain>  (1) 


$$$$
