 
     RDKit          2D

 35 38  0  0  0  0  0  0  0  0999 V2000
    6.0134  -15.9765    0.0000 N   0  0  0  0  0  0  0  0  0  0  0  0
    6.0134  -16.7937    0.0000 C   0  0  0  0  0  0  0  0  0  0  0  0
    6.7187  -17.1982    0.0000 N   0  0  0  0  0  0  0  0  0  0  0  0
    7.4239  -16.7937    0.0000 C   0  0  0  0  0  0  0  0  0  0  0  0
    7.4239  -15.9765    0.0000 C   0  0  0  0  0  0  0  0  0  0  0  0
    6.7187  -15.5638    0.0000 C   0  0  0  0  0  0  0  0  0  0  0  0
    6.7187  -14.7466    0.0000 C   0  0  0  0  0  0  0  0  0  0  0  0
    8.1328  -15.5700    0.0000 C   0  0  0  0  0  0  0  0  0  0  0  0
    8.8393  -15.9806    0.0000 C   0  0  0  0  0  0  0  0  0  0  0  0
    9.5482  -15.5741    0.0000 N   0  0  0  0  0  0  0  0  0  0  0  0
    8.8369  -16.7978    0.0000 S   0  0  0  0  0  0  0  0  0  0  0  0
   10.2548  -15.9848    0.0000 C   0  0  0  0  0  0  0  0  0  0  0  0
    9.5506  -14.7569    0.0000 C   0  0  0  0  0  0  0  0  0  0  0  0
    5.3063  -17.2033    0.0000 C   0  0  0  0  0  0  0  0  0  0  0  0
    4.5980  -16.7957    0.0000 C   0  0  0  0  0  0  0  0  0  0  0  0
    3.8908  -17.2054    0.0000 C   0  0  0  0  0  0  0  0  0  0  0  0
    3.1825  -16.7978    0.0000 C   0  0  0  0  0  0  0  0  0  0  0  0
    6.7187  -18.0154    0.0000 C   0  0  0  0  0  0  0  0  0  0  0  0
    7.4264  -18.4239    0.0000 C   0  0  0  0  0  0  0  0  0  0  0  0
    7.4221  -19.2422    0.0000 C   0  0  0  0  0  0  0  0  0  0  0  0
    8.1290  -19.6507    0.0000 C   0  0  0  0  0  0  0  0  0  0  0  0
    8.8377  -19.2421    0.0000 C   0  0  0  0  0  0  0  0  0  0  0  0
    8.8351  -18.4207    0.0000 C   0  0  0  0  0  0  0  0  0  0  0  0
    8.1276  -18.0158    0.0000 C   0  0  0  0  0  0  0  0  0  0  0  0
    9.5449  -19.6497    0.0000 C   0  0  0  0  0  0  0  0  0  0  0  0
    9.5446  -20.4680    0.0000 C   0  0  0  0  0  0  0  0  0  0  0  0
   10.2520  -20.8756    0.0000 C   0  0  0  0  0  0  0  0  0  0  0  0
   10.9602  -20.4660    0.0000 C   0  0  0  0  0  0  0  0  0  0  0  0
   10.9565  -19.6446    0.0000 C   0  0  0  0  0  0  0  0  0  0  0  0
   10.2485  -19.2407    0.0000 C   0  0  0  0  0  0  0  0  0  0  0  0
    8.8371  -20.8784    0.0000 C   0  0  0  0  0  0  0  0  0  0  0  0
    8.0905  -20.5462    0.0000 N   0  0  0  0  0  0  0  0  0  0  0  0
    7.5439  -21.1537    0.0000 N   0  0  0  0  0  0  0  0  0  0  0  0
    7.9527  -21.8613    0.0000 N   0  0  0  0  0  0  0  0  0  0  0  0
    8.7519  -21.6911    0.0000 N   0  0  0  0  0  0  0  0  0  0  0  0
  1  2  2  0
  1  6  1  0
  2  3  1  0
  3  4  1  0
  4  5  1  0
  5  6  2  0
  6  7  1  0
  5  8  1  0
  8  9  1  0
  9 10  1  0
  9 11  2  0
 10 12  1  0
 10 13  1  0
  2 14  1  0
 14 15  1  0
 15 16  1  0
 16 17  1  0
  3 18  1  0
 18 19  1  0
 19 20  2  0
 20 21  1  0
 21 22  2  0
 22 23  1  0
 23 24  2  0
 24 19  1  0
 25 26  1  0
 26 27  2  0
 27 28  1  0
 28 29  2  0
 29 30  1  0
 30 25  2  0
 22 25  1  0
 31 32  2  0
 32 33  1  0
 33 34  2  0
 34 35  1  0
 35 31  1  0
 26 31  1  0
M  END
>  <From>  (1) 
www.bindingDB.org

>  <BindingDB Reactant_set_id>  (1) 
51241665

>  <Ligand InChI>  (1) 
InChI=1S/C27H33N7S/c1-5-6-11-25-28-19(2)22(16-26(35)33(3)4)18-34(25)17-20-12-14-21(15-13-20)23-9-7-8-10-24(23)27-29-31-32-30-27/h7-10,12-15H,5-6,11,16-18H2,1-4H3,(H,29,30,31,32)

>  <Ligand InChI Key>  (1) 
JXBMFKLNAISDAV-UHFFFAOYSA-N

>  <BindingDB MonomerID>  (1) 
50508111

>  <BindingDB Ligand Name>  (1) 
CHEMBL4520827

>  <Target Name>  (1) 
Type-1 angiotensin II receptor

>  <Target Source Organism According to Curator or DataSource>  (1) 
Homo sapiens

>  <Ki (nM)>  (1) 


>  <IC50 (nM)>  (1) 
 1.5

>  <Kd (nM)>  (1) 


>  <EC50 (nM)>  (1) 


>  <kon (M-1-s-1)>  (1) 


>  <koff (s-1)>  (1) 


>  <pH>  (1) 


>  <Temp C>  (1) 


>  <Curation/DataSource>  (1) 
ChEMBL

>  <Article DOI>  (1) 
10.1016/j.bmcl.2018.12.043

>  <BindingDB Entry DOI>  (1) 
10.7270/Q22B929Z

>  <PMID>  (1) 
30594432

>  <PubChem AID>  (1) 


>  <Patent Number>  (1) 


>  <Authors>  (1) 
Choung, W; Jung, HJ; Yang, D; Nam, EH; Choi, H; Lee, BR; Park, M; Jang, SM; Lim, JS; Kim, WS; Kim, KH; Chin, J; Jung, K; Lee, G; Hong, E; Jang, TH; Myung, J; Kim, SH

>  <Institution>  (1) 
Boryung Pharmaceuticals Co. Ltd.

>  <Link to Ligand in BindingDB>  (1) 
http://www.bindingdb.org/bind/chemsearch/marvin/MolStructure.jsp?monomerid=50508111

>  <Link to Ligand-Target Pair in BindingDB>  (1) 
http://www.bindingdb.org/jsp/dbsearch/PrimarySearch_ki.jsp?energyterm=kJ/mole&tag=r21&monomerid=50508111&enzyme=Type-1+angiotensin+II+receptor&column=ki&startPg=0&Increment=50&submit=Search

>  <Ligand HET ID in PDB>  (1) 


>  <PDB ID(s) for Ligand-Target Complex>  (1) 


>  <PubChem CID of Ligand>  (1) 
155542482

>  <PubChem SID of Ligand>  (1) 
440716696

>  <ChEBI ID of Ligand>  (1) 


>  <ChEMBL ID of Ligand>  (1) 


>  <DrugBank ID of Ligand>  (1) 


>  <IUPHAR_GRAC ID of Ligand>  (1) 


>  <KEGG ID of Ligand>  (1) 


>  <ZINC ID of Ligand>  (1) 


>  <Number of Protein Chains in Target (bigger than 1 implies a multichain complex)>  (1) 
1

>  <BindingDB Target Chain Sequence>  (1) 
MILNSSTEDGIKRIQDDCPKAGRHNYIFVMIPTLYSIIFVVGIFGNSLVVIVIYFYMKLKTVASVFLLNLALADLCFLLTLPLWAVYTAMEYRWPFGNYLCKIASASVSFNLYASVFLLTCLSIDRYLAIVHPMKSRLRRTMLVAKVTCIIIWLLAGLASLPAIIHRNVFFIENTNITVCAFHYESQNSTLPIGLGLTKNILGFLFPFLIILTSYTLIWKALKKAYEIQKNKPRNDDIFKIIMAIVLFFFFSWIPHQIFTFLDVLIQLGIIRDCRIADIVDTAMPITICIAYFNNCLNPLFYGFLGKKFKRYFLQLLKYIPPKAKSHSNLSTKMSTLSYRPSDNVSSSTKKPAPCFEVE

>  <PDB ID(s) of Target Chain>  (1) 
6DO1,6OS0,6OS1,6OS2

>  <UniProt (SwissProt) Recommended Name of Target Chain>  (1) 
Type-1 angiotensin II receptor

>  <UniProt (SwissProt) Entry Name of Target Chain>  (1) 
AGTR1_HUMAN

>  <UniProt (SwissProt) Primary ID of Target Chain>  (1) 
P30556

>  <UniProt (SwissProt) Secondary ID(s) of Target Chain>  (1) 
Q13725 Q8TBK4

>  <UniProt (SwissProt) Alternative ID(s) of Target Chain>  (1) 


>  <UniProt (TrEMBL) Submitted Name of Target Chain>  (1) 


>  <UniProt (TrEMBL) Entry Name of Target Chain>  (1) 


>  <UniProt (TrEMBL) Primary ID of Target Chain>  (1) 


>  <UniProt (TrEMBL) Secondary ID(s) of Target Chain>  (1) 


>  <UniProt (TrEMBL) Alternative ID(s) of Target Chain>  (1) 


$$$$
