
     RDKit          2D

 36 39  0  0  0  0  0  0  0  0999 V2000
   -1.6223    1.5542    0.0000 N   0  0  0  0  0  0  0  0  0  0  0  0
   -1.6234    0.7268    0.0000 C   0  0  0  0  0  0  0  0  0  0  0  0
   -0.9086    0.3140    0.0000 N   0  0  0  0  0  0  0  0  0  0  0  0
   -0.1922    0.7273    0.0000 C   0  0  0  0  0  0  0  0  0  0  0  0
   -0.1950    1.5578    0.0000 C   0  0  0  0  0  0  0  0  0  0  0  0
   -0.9104    1.9670    0.0000 C   0  0  0  0  0  0  0  0  0  0  0  0
   -0.9088   -0.5110    0.0000 C   0  0  0  0  0  0  0  0  0  0  0  0
   -0.1944   -0.9237    0.0000 C   0  0  0  0  0  0  0  0  0  0  0  0
   -0.1988   -1.7469    0.0000 C   0  0  0  0  0  0  0  0  0  0  0  0
    0.5147   -2.1595    0.0000 C   0  0  0  0  0  0  0  0  0  0  0  0
    1.2303   -1.7471    0.0000 C   0  0  0  0  0  0  0  0  0  0  0  0
    1.2278   -0.9179    0.0000 C   0  0  0  0  0  0  0  0  0  0  0  0
    0.5137   -0.5090    0.0000 C   0  0  0  0  0  0  0  0  0  0  0  0
    1.9444   -2.1583    0.0000 C   0  0  0  0  0  0  0  0  0  0  0  0
    1.9441   -2.9841    0.0000 C   0  0  0  0  0  0  0  0  0  0  0  0
    2.6580   -3.3961    0.0000 C   0  0  0  0  0  0  0  0  0  0  0  0
    3.3730   -2.9827    0.0000 C   0  0  0  0  0  0  0  0  0  0  0  0
    3.3695   -2.1535    0.0000 C   0  0  0  0  0  0  0  0  0  0  0  0
    2.6548   -1.7456    0.0000 C   0  0  0  0  0  0  0  0  0  0  0  0
    1.2927   -3.4925    0.0000 C   0  0  0  0  0  0  0  0  0  0  0  0
    0.4999   -3.2642    0.0000 N   0  0  0  0  0  0  0  0  0  0  0  0
    0.0379   -3.9478    0.0000 N   0  0  0  0  0  0  0  0  0  0  0  0
    0.5452   -4.5984    0.0000 N   0  0  0  0  0  0  0  0  0  0  0  0
    1.3208   -4.3170    0.0000 N   0  0  0  0  0  0  0  0  0  0  0  0
    0.5230    0.3159    0.0000 O   0  0  0  0  0  0  0  0  0  0  0  0
   -2.3382    0.3149    0.0000 C   0  0  0  0  0  0  0  0  0  0  0  0
   -3.0524    0.7280    0.0000 C   0  0  0  0  0  0  0  0  0  0  0  0
   -3.7672    0.3160    0.0000 C   0  0  0  0  0  0  0  0  0  0  0  0
   -4.4813    0.7291    0.0000 C   0  0  0  0  0  0  0  0  0  0  0  0
   -0.9129    2.7920    0.0000 C   0  0  0  0  0  0  0  0  0  0  0  0
    0.5179    1.9730    0.0000 C   0  0  0  0  0  0  0  0  0  0  0  0
    1.2339    1.5632    0.0000 C   0  0  0  0  0  0  0  0  0  0  0  0
    1.9468    1.9784    0.0000 O   0  0  0  0  0  0  0  0  0  0  0  0
    1.2370    0.7382    0.0000 O   0  0  0  0  0  0  0  0  0  0  0  0
    2.6628    1.5686    0.0000 C   0  0  0  0  0  0  0  0  0  0  0  0
    3.3758    1.9838    0.0000 C   0  0  0  0  0  0  0  0  0  0  0  0
 17 18  2  0
  8  9  2  0
 18 19  1  0
 19 14  2  0
 11 14  1  0
 23 24  1  0
  4  5  1  0
  9 10  1  0
 21 22  1  0
  2  3  1  0
 10 11  2  0
  5  6  2  0
 20 21  2  0
 22 23  2  0
 24 20  1  0
 15 20  1  0
 11 12  1  0
  4 25  2  0
  6  1  1  0
  2 26  1  0
 12 13  2  0
 26 27  1  0
 13  8  1  0
 27 28  1  0
  1  2  2  0
 28 29  1  0
  3  7  1  0
  6 30  1  0
 14 15  1  0
  5 31  1  0
  3  4  1  0
 31 32  1  0
 15 16  2  0
 32 33  1  0
  7  8  1  0
 32 34  2  0
 16 17  1  0
 33 35  1  0
 35 36  1  0
M  END
>  <From>  (1) 
www.bindingDB.org

>  <BindingDB Reactant_set_id>  (1) 
50718762

>  <Ligand InChI>  (1) 
InChI=1S/C27H30N6O3/c1-4-6-11-24-28-18(3)23(16-25(34)36-5-2)27(35)33(24)17-19-12-14-20(15-13-19)21-9-7-8-10-22(21)26-29-31-32-30-26/h7-10,12-15H,4-6,11,16-17H2,1-3H3,(H,29,30,31,32)

>  <Ligand InChI Key>  (1) 
POFJMXLUMXVGIO-UHFFFAOYSA-N

>  <BindingDB MonomerID>  (1) 
50364589

>  <BindingDB Ligand Name>  (1) 
CHEMBL1951119

>  <Target Name>  (1) 
Type-1 angiotensin II receptor

>  <Target Source Organism According to Curator or DataSource>  (1) 
Oryctolagus cuniculus

>  <Ki (nM)>  (1) 


>  <IC50 (nM)>  (1) 
 4.63

>  <Kd (nM)>  (1) 


>  <EC50 (nM)>  (1) 


>  <kon (M-1-s-1)>  (1) 


>  <koff (s-1)>  (1) 


>  <pH>  (1) 


>  <Temp C>  (1) 


>  <Curation/DataSource>  (1) 
ChEMBL

>  <Article DOI>  (1) 
10.1016/j.bmcl.2011.12.116

>  <BindingDB Entry DOI>  (1) 
10.7270/Q22R3S48

>  <PMID>  (1) 
22264484

>  <PubChem AID>  (1) 


>  <Patent Number>  (1) 


>  <Authors>  (1) 
Kim, TW; Yoo, BW; Lee, JK; Kim, JH; Lee, KT; Chi, YH; Lee, JY

>  <Institution>  (1) 
Kyung Hee University

>  <Link to Ligand in BindingDB>  (1) 
http://www.bindingdb.org/bind/chemsearch/marvin/MolStructure.jsp?monomerid=50364589

>  <Link to Ligand-Target Pair in BindingDB>  (1) 
http://www.bindingdb.org/jsp/dbsearch/PrimarySearch_ki.jsp?energyterm=kJ/mole&tag=r21&monomerid=50364589&enzyme=Type-1+angiotensin+II+receptor&column=ki&startPg=0&Increment=50&submit=Search

>  <Ligand HET ID in PDB>  (1) 


>  <PDB ID(s) for Ligand-Target Complex>  (1) 


>  <PubChem CID of Ligand>  (1) 
54199501

>  <PubChem SID of Ligand>  (1) 
136968651

>  <ChEBI ID of Ligand>  (1) 


>  <ChEMBL ID of Ligand>  (1) 
CHEMBL1951119

>  <DrugBank ID of Ligand>  (1) 


>  <IUPHAR_GRAC ID of Ligand>  (1) 


>  <KEGG ID of Ligand>  (1) 


>  <ZINC ID of Ligand>  (1) 
ZINC73277946

>  <Number of Protein Chains in Target (bigger than 1 implies a multichain complex)>  (1) 
1

>  <BindingDB Target Chain Sequence>  (1) 
MMLNSSTEDGIKRIQDDCPKAGRHNYIFVMIPTLYSIIFVVGIFGNSLAVIVIYFYMKLKTVASVFLLNLALADLCFLLTLPLWAVYTAMEYRWPFGNYLCKIASASVSFNLYASVFLLTCLSIDRYLAIVHPMKSRLRRTMLVAKVTCIIIWLLAGLASLPAIIHRNVFFIENTNITVCAFHYESQNSTLPIGLGLTKNILGFLFPFLIILTSYTLIWKALKKAYEIQKNKPRNDDIFKIIMAIVLFFFFSWVPHQIFTFLDVLIQLGVIHDCRIADIVDTAMPITICIAYFNNCLNPLFYGFLGKKFKKYFLQLLKYIPPKAKSHSNLSTKMSTLSYRPSDNVSSSSKKPVPCFEVE

>  <PDB ID(s) of Target Chain>  (1) 
6DO1,6OS0,6OS1,6OS2

>  <UniProt (SwissProt) Recommended Name of Target Chain>  (1) 
Type-1 angiotensin II receptor

>  <UniProt (SwissProt) Entry Name of Target Chain>  (1) 
AGTR1_RABIT

>  <UniProt (SwissProt) Primary ID of Target Chain>  (1) 
P34976

>  <UniProt (SwissProt) Secondary ID(s) of Target Chain>  (1) 


>  <UniProt (SwissProt) Alternative ID(s) of Target Chain>  (1) 


>  <UniProt (TrEMBL) Submitted Name of Target Chain>  (1) 


>  <UniProt (TrEMBL) Entry Name of Target Chain>  (1) 


>  <UniProt (TrEMBL) Primary ID of Target Chain>  (1) 


>  <UniProt (TrEMBL) Secondary ID(s) of Target Chain>  (1) 


>  <UniProt (TrEMBL) Alternative ID(s) of Target Chain>  (1) 


$$$$
