
     RDKit          2D

 36 39  0  0  0  0  0  0  0  0999 V2000
    3.8156   -6.2319    0.0000 N   0  0  0  0  0  0  0  0  0  0  0  0
    4.5255   -5.8209    0.0000 C   0  0  0  0  0  0  0  0  0  0  0  0
    5.9579   -9.9520    0.0000 C   0  0  0  0  0  0  0  0  0  0  0  0
    3.1056   -5.8209    0.0000 C   0  0  0  0  0  0  0  0  0  0  0  0
    5.2480   -6.2319    0.0000 C   0  0  0  0  0  0  0  0  0  0  0  0
    4.6501  -10.2302    0.0000 N   0  0  0  0  0  0  0  0  0  0  0  0
    5.2064   -9.6157    0.0000 N   0  0  0  0  0  0  0  0  0  0  0  0
    5.0611  -10.9401    0.0000 N   0  0  0  0  0  0  0  0  0  0  0  0
    5.8707  -10.7740    0.0000 N   0  0  0  0  0  0  0  0  0  0  0  0
    6.6762   -9.5327    0.0000 C   0  0  0  0  0  0  0  0  0  0  0  0
    6.6762   -8.7064    0.0000 C   0  0  0  0  0  0  0  0  0  0  0  0
    5.9579   -5.8209    0.0000 C   0  0  0  0  0  0  0  0  0  0  0  0
    4.5255   -4.9988    0.0000 C   0  0  0  0  0  0  0  0  0  0  0  0
    3.8156   -4.5754    0.0000 C   0  0  0  0  0  0  0  0  0  0  0  0
    3.1056   -4.9988    0.0000 C   0  0  0  0  0  0  0  0  0  0  0  0
    3.8156   -7.0540    0.0000 C   0  0  0  0  0  0  0  0  0  0  0  0
    5.9579   -8.2996    0.0000 C   0  0  0  0  0  0  0  0  0  0  0  0
    2.3915   -6.2319    0.0000 O   0  0  0  0  0  0  0  0  0  0  0  0
    5.9662   -4.9988    0.0000 O   0  0  0  0  0  0  0  0  0  0  0  0
    5.9579   -7.4650    0.0000 C   0  0  0  0  0  0  0  0  0  0  0  0
    5.2438   -8.7106    0.0000 C   0  0  0  0  0  0  0  0  0  0  0  0
    4.5338   -7.4733    0.0000 C   0  0  0  0  0  0  0  0  0  0  0  0
    6.6803   -6.2319    0.0000 O   0  0  0  0  0  0  0  0  0  0  0  0
    5.2438   -7.0540    0.0000 C   0  0  0  0  0  0  0  0  0  0  0  0
    4.5255   -8.2996    0.0000 C   0  0  0  0  0  0  0  0  0  0  0  0
    7.3903   -9.9520    0.0000 C   0  0  0  0  0  0  0  0  0  0  0  0
    7.3903   -8.2954    0.0000 C   0  0  0  0  0  0  0  0  0  0  0  0
    3.3921   -3.8903    0.0000 C   0  0  0  0  0  0  0  0  0  0  0  0
    4.2224   -3.8654    0.0000 C   0  0  0  0  0  0  0  0  0  0  0  0
    7.3903   -5.8292    0.0000 C   0  0  0  0  0  0  0  0  0  0  0  0
    3.7865   -3.1637    0.0000 C   0  0  0  0  0  0  0  0  0  0  0  0
    2.5700   -3.9110    0.0000 C   0  0  0  0  0  0  0  0  0  0  0  0
    8.1003   -8.6981    0.0000 C   0  0  0  0  0  0  0  0  0  0  0  0
    8.1003   -9.5327    0.0000 C   0  0  0  0  0  0  0  0  0  0  0  0
    8.1085   -6.2402    0.0000 C   0  0  0  0  0  0  0  0  0  0  0  0
    4.1726   -2.4413    0.0000 C   0  0  0  0  0  0  0  0  0  0  0  0
  2  1  1  0
  3 10  1  0
  4  1  1  0
  5  2  2  0
  6  7  1  0
  7  3  1  0
  8  9  1  0
  9  3  2  0
 10 11  1  0
 11 17  1  0
 12  5  1  0
 13  2  1  0
 14 15  1  0
 15  4  1  0
 16  1  1  0
 17 21  2  0
 18  4  2  0
 19 12  2  0
 20 24  2  0
 21 25  1  0
 22 16  1  0
 23 12  1  0
 24 22  1  0
 25 22  2  0
 26 10  2  0
 27 11  2  0
 28 14  1  0
 29 14  1  0
 30 23  1  0
 31 29  1  0
 32 28  1  0
 33 27  1  0
 34 33  2  0
 35 30  1  0
 36 31  1  0
 14 13  1  0
 20 17  1  0
 34 26  1  0
  8  6  2  0
M  END
>  <From>  (1) 
www.bindingDB.org

>  <BindingDB Reactant_set_id>  (1) 
50463556

>  <Ligand InChI>  (1) 
InChI=1S/C28H33N5O3/c1-4-15-28(5-2)17-22(16-26(35)36-6-3)33(25(34)18-28)19-20-11-13-21(14-12-20)23-9-7-8-10-24(23)27-29-31-32-30-27/h7-14,16H,4-6,15,17-19H2,1-3H3,(H,29,30,31,32)/b22-16+

>  <Ligand InChI Key>  (1) 
WVFNUBOYTMPGLS-CJLVFECKSA-N

>  <BindingDB MonomerID>  (1) 
50280325

>  <BindingDB Ligand Name>  (1) 
CHEMBL48459::[4-Ethyl-6-oxo-4-propyl-1-[2'-(1H-tetrazol-5-yl)-biphenyl-4-ylmethyl]-piperidin-(2E)-ylidene]-acetic acid ethyl ester

>  <Target Name>  (1) 
Type-1 angiotensin II receptor

>  <Target Source Organism According to Curator or DataSource>  (1) 
Bos taurus

>  <Ki (nM)>  (1) 


>  <IC50 (nM)>  (1) 
 90

>  <Kd (nM)>  (1) 


>  <EC50 (nM)>  (1) 


>  <kon (M-1-s-1)>  (1) 


>  <koff (s-1)>  (1) 


>  <pH>  (1) 


>  <Temp C>  (1) 


>  <Curation/DataSource>  (1) 
ChEMBL

>  <Article DOI>  (1) 
10.1016/S0960-894X(00)80474-6

>  <BindingDB Entry DOI>  (1) 
10.7270/Q2NP24B9

>  <PMID>  (1) 


>  <PubChem AID>  (1) 


>  <Patent Number>  (1) 


>  <Authors>  (1) 
Murray, WV; Lalan, P; Gill, A; Addo, MF; Lewis, JM; Lee, DK; Rampulla, R; Wachter, MP; Hsi, JD; Underwood, DC

>  <Institution>  (1) 
TBA

>  <Link to Ligand in BindingDB>  (1) 
http://www.bindingdb.org/bind/chemsearch/marvin/MolStructure.jsp?monomerid=50280325

>  <Link to Ligand-Target Pair in BindingDB>  (1) 
http://www.bindingdb.org/jsp/dbsearch/PrimarySearch_ki.jsp?energyterm=kJ/mole&tag=r21&monomerid=50280325&enzyme=Type-1+angiotensin+II+receptor&column=ki&startPg=0&Increment=50&submit=Search

>  <Ligand HET ID in PDB>  (1) 


>  <PDB ID(s) for Ligand-Target Complex>  (1) 


>  <PubChem CID of Ligand>  (1) 
44294551

>  <PubChem SID of Ligand>  (1) 
104122029

>  <ChEBI ID of Ligand>  (1) 


>  <ChEMBL ID of Ligand>  (1) 
CHEMBL48459

>  <DrugBank ID of Ligand>  (1) 


>  <IUPHAR_GRAC ID of Ligand>  (1) 


>  <KEGG ID of Ligand>  (1) 


>  <ZINC ID of Ligand>  (1) 
ZINC29469776

>  <Number of Protein Chains in Target (bigger than 1 implies a multichain complex)>  (1) 
1

>  <BindingDB Target Chain Sequence>  (1) 
MILNSSTEDGIKRIQDDCPKAGRHNYIFIMIPTLYSIIFVVGIFGNSLVVIVIYFYMKLKTVASVFLLNLALADLCFLLTLPLWAVYTAMEYRWPFGNYLCKIASASVSFNLYASVFLLTCLSIDRYLAIVHPMKSRLRRTMLVAKVTCIIIWLLAGLASLPTIIHRNVFFIENTNITVCAFHYESQNSTLPVGLGLTKNILGFLFPFLIILTSYTLIWKTLKKAYEIQKNKPRKDDIFKIILAIVLFFFFSWVPHQIFTFMDVLIQLGLIRDCKIEDIVDTAMPITICLAYFNNCLNPLFYGFLGKKFKKYFLQLLKYIPPKAKSHSNLSTKMSTLSYRPSENGNSSTKKPAPCIEVE

>  <PDB ID(s) of Target Chain>  (1) 


>  <UniProt (SwissProt) Recommended Name of Target Chain>  (1) 
Type-1 angiotensin II receptor

>  <UniProt (SwissProt) Entry Name of Target Chain>  (1) 
AGTR1_BOVIN

>  <UniProt (SwissProt) Primary ID of Target Chain>  (1) 
P25104

>  <UniProt (SwissProt) Secondary ID(s) of Target Chain>  (1) 


>  <UniProt (SwissProt) Alternative ID(s) of Target Chain>  (1) 


>  <UniProt (TrEMBL) Submitted Name of Target Chain>  (1) 


>  <UniProt (TrEMBL) Entry Name of Target Chain>  (1) 


>  <UniProt (TrEMBL) Primary ID of Target Chain>  (1) 


>  <UniProt (TrEMBL) Secondary ID(s) of Target Chain>  (1) 


>  <UniProt (TrEMBL) Alternative ID(s) of Target Chain>  (1) 


$$$$
