
     RDKit          2D

 38 41  0  0  1  0  0  0  0  0999 V2000
    6.6513   -6.5052    0.0000 C   0  0  0  0  0  0  0  0  0  0  0  0
    5.9916   -6.0166    0.0000 N   0  0  0  0  0  0  0  0  0  0  0  0
    6.3924   -7.2943    0.0000 C   0  0  0  0  0  0  0  0  0  0  0  0
    5.5657   -7.2818    0.0000 N   0  0  0  0  0  0  0  0  0  0  0  0
    1.2693   -3.1941    0.0000 N   0  0  0  0  0  0  0  0  0  0  0  0
    5.3152   -6.4926    0.0000 C   0  0  0  0  0  0  0  0  0  0  0  0
    1.9415   -2.7098    0.0000 C   0  0  0  0  0  0  0  0  0  0  0  0
    1.2693   -5.2108    0.0000 C   0  0  0  0  0  0  0  0  0  0  0  0
    1.9833   -5.6241    0.0000 C   0  0  0  0  0  0  0  0  0  0  0  0
    7.4404   -6.2546    0.0000 C   0  0  0  0  0  0  0  0  0  0  0  0
    2.7223   -2.9603    0.0000 C   0  0  0  0  0  0  0  0  0  0  0  0
    2.6973   -5.2108    0.0000 N   0  0  0  0  0  0  0  0  0  0  0  0
    0.5553   -5.6241    0.0000 C   0  0  0  0  0  0  0  0  0  0  0  0
    5.9916   -5.1899    0.0000 C   0  0  0  0  0  0  0  0  0  0  0  0
   -0.1586   -5.2108    0.0000 C   0  0  0  0  0  0  0  0  0  0  0  0
    0.6012   -2.7098    0.0000 C   0  0  0  0  0  0  0  0  0  0  0  0
   -0.2463   -4.3758    0.0000 S   0  0  0  0  0  0  0  0  0  0  0  0
    1.6827   -1.9207    0.0000 C   0  0  0  0  0  0  0  0  0  0  0  0
    0.8560   -1.9207    0.0000 C   0  0  0  0  0  0  0  0  0  0  0  0
    1.9833   -6.4508    0.0000 O   0  0  0  0  0  0  0  0  0  0  0  0
    6.8016   -8.0083    0.0000 Cl  0  0  0  0  0  0  0  0  0  0  0  0
   -1.0522   -4.2129    0.0000 C   0  0  0  0  0  0  0  0  0  0  0  0
    7.6200   -5.4530    0.0000 O   0  0  0  0  0  0  0  0  0  0  0  0
    3.3444   -2.4092    0.0000 O   0  0  0  0  0  0  0  0  0  0  0  0
   -0.9144   -5.5407    0.0000 C   0  0  0  0  0  0  0  0  0  0  0  0
   -1.4655   -4.9394    0.0000 C   0  0  0  0  0  0  0  0  0  0  0  0
    3.5240   -5.2025    0.0000 C   0  0  0  0  0  0  0  0  0  0  0  0
    5.1649   -5.1983    0.0000 C   0  0  0  0  0  0  0  0  0  0  0  0
    8.0542   -6.8183    0.0000 O   0  0  0  0  0  0  0  0  0  0  0  0
    2.8977   -3.7745    0.0000 O   0  0  0  0  0  0  0  0  0  0  0  0
    4.5344   -6.2379    0.0000 C   0  0  0  0  0  0  0  0  0  0  0  0
    3.9373   -5.9164    0.0000 C   0  0  0  0  0  0  0  0  0  0  0  0
    3.9248   -4.4885    0.0000 C   0  0  0  0  0  0  0  0  0  0  0  0
    4.7515   -4.4843    0.0000 C   0  0  0  0  0  0  0  0  0  0  0  0
    4.7598   -5.9122    0.0000 C   0  0  0  0  0  0  0  0  0  0  0  0
    3.9123   -6.7807    0.0000 C   0  0  0  0  0  0  0  0  0  0  0  0
    3.1315   -6.5177    0.0000 C   0  0  0  0  0  0  0  0  0  0  0  0
    2.5094   -7.0688    0.0000 C   0  0  0  0  0  0  0  0  0  0  0  0
  2  1  1  0
  3  1  2  0
  4  3  1  0
  8  5  1  0
  6  2  1  0
  7  5  1  0
  8  9  1  0
  9 12  1  0
 10  1  1  0
 11  7  1  0
 12 27  1  0
  8 13  1  6
 14  2  1  0
 15 13  1  0
 16  5  1  0
 17 15  1  0
 18  7  2  0
 19 16  2  0
 20  9  2  0
 21  3  1  0
 22 17  1  0
 23 10  2  0
 24 11  2  0
 25 15  2  0
 26 25  1  0
 27 32  2  0
 28 14  1  0
 29 10  1  0
 30 11  1  0
 31  6  1  0
 32 35  1  0
 33 34  2  0
 34 28  1  0
 35 28  2  0
 36 31  1  0
 37 36  1  0
 38 37  1  0
  6  4  2  0
 33 27  1  0
 18 19  1  0
 22 26  2  0
M  END
>  <From>  (1) 
www.bindingDB.org

>  <BindingDB Reactant_set_id>  (1) 
50077573

>  <Ligand InChI>  (1) 
InChI=1S/C27H27ClN4O5S/c1-2-3-8-22-30-24(28)23(27(36)37)32(22)16-17-9-11-18(12-10-17)29-25(33)21(15-19-6-5-14-38-19)31-13-4-7-20(31)26(34)35/h4-7,9-14,21H,2-3,8,15-16H2,1H3,(H,29,33)(H,34,35)(H,36,37)/t21-/m0/s1

>  <Ligand InChI Key>  (1) 
KJSPIKRRLLGFEA-NRFANRHFSA-N

>  <BindingDB MonomerID>  (1) 
50047930

>  <BindingDB Ligand Name>  (1) 
2-Butyl-3-{4-[2-(2-carboxy-pyrrol-1-yl)-3-thiophen-2-yl-propionylamino]-benzyl}-5-chloro-3H-imidazole-4-carboxylic acid::CHEMBL49526

>  <Target Name>  (1) 
Type-1 angiotensin II receptor B

>  <Target Source Organism According to Curator or DataSource>  (1) 
Rattus

>  <Ki (nM)>  (1) 


>  <IC50 (nM)>  (1) 
 180

>  <Kd (nM)>  (1) 


>  <EC50 (nM)>  (1) 


>  <kon (M-1-s-1)>  (1) 


>  <koff (s-1)>  (1) 


>  <pH>  (1) 


>  <Temp C>  (1) 


>  <Curation/DataSource>  (1) 
ChEMBL

>  <Article DOI>  (1) 
10.1021/jm00064a007

>  <BindingDB Entry DOI>  (1) 
10.7270/Q28W3CCP

>  <PMID>  (1) 
8510101

>  <PubChem AID>  (1) 


>  <Patent Number>  (1) 


>  <Authors>  (1) 
Sircar, I; Winters, RT; Quin, J; Lu, GH; Major, TC; Panek, RL

>  <Institution>  (1) 
Warner-Lambert Company

>  <Link to Ligand in BindingDB>  (1) 
http://www.bindingdb.org/bind/chemsearch/marvin/MolStructure.jsp?monomerid=50047930

>  <Link to Ligand-Target Pair in BindingDB>  (1) 
http://www.bindingdb.org/jsp/dbsearch/PrimarySearch_ki.jsp?energyterm=kJ/mole&tag=r21&monomerid=50047930&enzyme=Type-1+angiotensin+II+receptor+B&column=ki&startPg=0&Increment=50&submit=Search

>  <Ligand HET ID in PDB>  (1) 


>  <PDB ID(s) for Ligand-Target Complex>  (1) 


>  <PubChem CID of Ligand>  (1) 
44293954

>  <PubChem SID of Ligand>  (1) 
103978494

>  <ChEBI ID of Ligand>  (1) 


>  <ChEMBL ID of Ligand>  (1) 
CHEMBL49526

>  <DrugBank ID of Ligand>  (1) 


>  <IUPHAR_GRAC ID of Ligand>  (1) 


>  <KEGG ID of Ligand>  (1) 


>  <ZINC ID of Ligand>  (1) 
ZINC29417423

>  <Number of Protein Chains in Target (bigger than 1 implies a multichain complex)>  (1) 
1

>  <BindingDB Target Chain Sequence>  (1) 
MTLNSSTEDGIKRIQDDCPKAGRHNYIFVMIPTLYSIIFVVGIFGNSLVVIVIYFYMKLKTVASVFLLNLALADLCFLLTLPLWAVYTAMEYRWPFGNHLCKIASASVSFNLYASVFLLTCLSIDRYLAIVHPMKSRLRRTMLVAKVTCIIIWLMAGLASLPAVIYRNVYFIENTNITVCAFHYESQNSTLPIGLGLTKNILGFVFPFLIILTSYTLIWKALKKAYKIQKNTPRNDDIFRIIMAIVLFFFFSWVPHQIFTFLDVLIQLGIIRDCEIADIVDTAMPITICIAYFNNCLNPLFYGFLGKKFKKYFLQLLKYIPPTAKSHAGLSTKMSTLSYRPSDNMSSSAKKSASFFEVE

>  <PDB ID(s) of Target Chain>  (1) 


>  <UniProt (SwissProt) Recommended Name of Target Chain>  (1) 
Type-1 angiotensin II receptor B

>  <UniProt (SwissProt) Entry Name of Target Chain>  (1) 
AGTRB_RAT

>  <UniProt (SwissProt) Primary ID of Target Chain>  (1) 
P29089

>  <UniProt (SwissProt) Secondary ID(s) of Target Chain>  (1) 


>  <UniProt (SwissProt) Alternative ID(s) of Target Chain>  (1) 


>  <UniProt (TrEMBL) Submitted Name of Target Chain>  (1) 


>  <UniProt (TrEMBL) Entry Name of Target Chain>  (1) 


>  <UniProt (TrEMBL) Primary ID of Target Chain>  (1) 


>  <UniProt (TrEMBL) Secondary ID(s) of Target Chain>  (1) 


>  <UniProt (TrEMBL) Alternative ID(s) of Target Chain>  (1) 


$$$$
