
     RDKit          2D

 36 40  0  0  0  0  0  0  0  0999 V2000
    8.2893   -8.8072    0.0000 N   0  0  0  0  0  0  0  0  0  0  0  0
    9.0026   -8.3937    0.0000 C   0  0  0  0  0  0  0  0  0  0  0  0
    8.9992   -7.5623    0.0000 C   0  0  0  0  0  0  0  0  0  0  0  0
    8.2872   -7.1536    0.0000 C   0  0  0  0  0  0  0  0  0  0  0  0
    7.5732   -8.3943    0.0000 C   0  0  0  0  0  0  0  0  0  0  0  0
    7.5701   -7.5695    0.0000 C   0  0  0  0  0  0  0  0  0  0  0  0
    6.7846   -7.3176    0.0000 N   0  0  0  0  0  0  0  0  0  0  0  0
    6.3024   -7.9867    0.0000 C   0  0  0  0  0  0  0  0  0  0  0  0
    6.7897   -8.6521    0.0000 N   0  0  0  0  0  0  0  0  0  0  0  0
    5.4772   -7.9899    0.0000 C   0  0  0  0  0  0  0  0  0  0  0  0
    5.0620   -7.2770    0.0000 C   0  0  0  0  0  0  0  0  0  0  0  0
    8.2854   -6.3285    0.0000 C   0  0  0  0  0  0  0  0  0  0  0  0
    9.7182   -8.8042    0.0000 C   0  0  0  0  0  0  0  0  0  0  0  0
    6.7802   -9.4738    0.0000 C   0  0  0  0  0  0  0  0  0  0  0  0
    7.4899   -9.8947    0.0000 C   0  0  0  0  0  0  0  0  0  0  0  0
    7.4766  -10.7179    0.0000 C   0  0  0  0  0  0  0  0  0  0  0  0
    8.1856  -11.1434    0.0000 C   0  0  0  0  0  0  0  0  0  0  0  0
    8.2033   -9.4879    0.0000 C   0  0  0  0  0  0  0  0  0  0  0  0
    8.9128   -9.9048    0.0000 C   0  0  0  0  0  0  0  0  0  0  0  0
    8.9089  -10.7298    0.0000 C   0  0  0  0  0  0  0  0  0  0  0  0
    9.6922  -10.9883    0.0000 N   0  0  0  0  0  0  0  0  0  0  0  0
   10.1803  -10.3232    0.0000 C   0  0  0  0  0  0  0  0  0  0  0  0
    9.6985   -9.6537    0.0000 C   0  0  0  0  0  0  0  0  0  0  0  0
    9.6826  -11.8133    0.0000 C   0  0  0  0  0  0  0  0  0  0  0  0
   10.3922  -12.2341    0.0000 C   0  0  0  0  0  0  0  0  0  0  0  0
   10.3789  -13.0572    0.0000 C   0  0  0  0  0  0  0  0  0  0  0  0
   11.0877  -13.4780    0.0000 C   0  0  0  0  0  0  0  0  0  0  0  0
   11.8080  -13.0738    0.0000 C   0  0  0  0  0  0  0  0  0  0  0  0
   11.8151  -12.2445    0.0000 C   0  0  0  0  0  0  0  0  0  0  0  0
   11.1056  -11.8275    0.0000 C   0  0  0  0  0  0  0  0  0  0  0  0
    8.9632  -12.2173    0.0000 O   0  0  0  0  0  0  0  0  0  0  0  0
    9.6586  -13.4595    0.0000 C   0  0  0  0  0  0  0  0  0  0  0  0
    8.9499  -13.0369    0.0000 O   0  0  0  0  0  0  0  0  0  0  0  0
    9.6468  -14.2846    0.0000 O   0  0  0  0  0  0  0  0  0  0  0  0
   11.0776  -14.3031    0.0000 Cl  0  0  0  0  0  0  0  0  0  0  0  0
   11.1112  -11.0023    0.0000 Cl  0  0  0  0  0  0  0  0  0  0  0  0
 17 20  2  0
  7  8  2  0
 19 18  2  0
 18 15  1  0
 19 20  1  0
  8  9  1  0
  9  5  1  0
  4  6  1  0
  8 10  1  0
  5  6  2  0
 20 21  1  0
 21 22  1  0
 22 23  1  0
 23 19  1  0
 10 11  1  0
 21 24  1  0
  1  2  2  0
 24 25  1  0
  4 12  1  0
 25 26  2  0
  5  1  1  0
 26 27  1  0
  2 13  1  0
 27 28  2  0
  2  3  1  0
 28 29  1  0
  9 14  1  0
 29 30  2  0
 30 25  1  0
 24 31  2  0
 14 15  1  0
 26 32  1  0
  3  4  2  0
 32 33  1  0
 15 16  2  0
 32 34  2  0
  6  7  1  0
 27 35  1  0
 16 17  1  0
 30 36  1  0
M  END
>  <From>  (1) 
www.bindingDB.org

>  <BindingDB Reactant_set_id>  (1) 
50062131

>  <Ligand InChI>  (1) 
InChI=1S/C27H24Cl2N4O3/c1-4-21-31-24-14(2)11-15(3)30-25(24)33(21)13-16-5-8-20-17(12-16)9-10-32(20)26(34)22-18(28)6-7-19(29)23(22)27(35)36/h5-8,11-12H,4,9-10,13H2,1-3H3,(H,35,36)

>  <Ligand InChI Key>  (1) 
JUYQXHDMZCASOQ-UHFFFAOYSA-N

>  <BindingDB MonomerID>  (1) 
50043440

>  <BindingDB Ligand Name>  (1) 
3,6-Dichloro-2-[5-(2-ethyl-5,7-dimethyl-3H-imidazo[4,5-b]pyridin-4-ylmethyl)-2,3-dihydro-indole-1-carbonyl]-benzoic acid::CHEMBL335535

>  <Target Name>  (1) 
Type-1 angiotensin II receptor

>  <Target Source Organism According to Curator or DataSource>  (1) 
Oryctolagus cuniculus

>  <Ki (nM)>  (1) 


>  <IC50 (nM)>  (1) 
 18

>  <Kd (nM)>  (1) 


>  <EC50 (nM)>  (1) 


>  <kon (M-1-s-1)>  (1) 


>  <koff (s-1)>  (1) 


>  <pH>  (1) 


>  <Temp C>  (1) 


>  <Curation/DataSource>  (1) 
ChEMBL

>  <Article DOI>  (1) 
10.1021/jm00078a013

>  <BindingDB Entry DOI>  (1) 
10.7270/Q26M35X0

>  <PMID>  (1) 
8277505

>  <PubChem AID>  (1) 


>  <Patent Number>  (1) 


>  <Authors>  (1) 
Dhanoa, DS; Bagley, SW; Chang, RS; Lotti, VJ; Chen, TB; Kivlighn, SD; Zingaro, GJ; Siegl, PK; Patchett, AA; Greenlee, WJ

>  <Institution>  (1) 
Merck Research Laboratories

>  <Link to Ligand in BindingDB>  (1) 
http://www.bindingdb.org/bind/chemsearch/marvin/MolStructure.jsp?monomerid=50043440

>  <Link to Ligand-Target Pair in BindingDB>  (1) 
http://www.bindingdb.org/jsp/dbsearch/PrimarySearch_ki.jsp?energyterm=kJ/mole&tag=r21&monomerid=50043440&enzyme=Type-1+angiotensin+II+receptor&column=ki&startPg=0&Increment=50&submit=Search

>  <Ligand HET ID in PDB>  (1) 


>  <PDB ID(s) for Ligand-Target Complex>  (1) 


>  <PubChem CID of Ligand>  (1) 
10414429

>  <PubChem SID of Ligand>  (1) 
103974868

>  <ChEBI ID of Ligand>  (1) 


>  <ChEMBL ID of Ligand>  (1) 
CHEMBL335535

>  <DrugBank ID of Ligand>  (1) 


>  <IUPHAR_GRAC ID of Ligand>  (1) 


>  <KEGG ID of Ligand>  (1) 


>  <ZINC ID of Ligand>  (1) 
ZINC13732397

>  <Number of Protein Chains in Target (bigger than 1 implies a multichain complex)>  (1) 
1

>  <BindingDB Target Chain Sequence>  (1) 
MMLNSSTEDGIKRIQDDCPKAGRHNYIFVMIPTLYSIIFVVGIFGNSLAVIVIYFYMKLKTVASVFLLNLALADLCFLLTLPLWAVYTAMEYRWPFGNYLCKIASASVSFNLYASVFLLTCLSIDRYLAIVHPMKSRLRRTMLVAKVTCIIIWLLAGLASLPAIIHRNVFFIENTNITVCAFHYESQNSTLPIGLGLTKNILGFLFPFLIILTSYTLIWKALKKAYEIQKNKPRNDDIFKIIMAIVLFFFFSWVPHQIFTFLDVLIQLGVIHDCRIADIVDTAMPITICIAYFNNCLNPLFYGFLGKKFKKYFLQLLKYIPPKAKSHSNLSTKMSTLSYRPSDNVSSSSKKPVPCFEVE

>  <PDB ID(s) of Target Chain>  (1) 
6DO1,6OS0,6OS1,6OS2

>  <UniProt (SwissProt) Recommended Name of Target Chain>  (1) 
Type-1 angiotensin II receptor

>  <UniProt (SwissProt) Entry Name of Target Chain>  (1) 
AGTR1_RABIT

>  <UniProt (SwissProt) Primary ID of Target Chain>  (1) 
P34976

>  <UniProt (SwissProt) Secondary ID(s) of Target Chain>  (1) 


>  <UniProt (SwissProt) Alternative ID(s) of Target Chain>  (1) 


>  <UniProt (TrEMBL) Submitted Name of Target Chain>  (1) 


>  <UniProt (TrEMBL) Entry Name of Target Chain>  (1) 


>  <UniProt (TrEMBL) Primary ID of Target Chain>  (1) 


>  <UniProt (TrEMBL) Secondary ID(s) of Target Chain>  (1) 


>  <UniProt (TrEMBL) Alternative ID(s) of Target Chain>  (1) 


$$$$
