
     RDKit          2D

 43 49  0  0  1  0  0  0  0  0999 V2000
    6.7042    1.1083    0.0000 N   0  0  0  0  0  0  0  0  0  0  0  0
    5.9792    0.6958    0.0000 C   0  0  0  0  0  0  0  0  0  0  0  0
    5.2667    1.1125    0.0000 C   0  0  0  0  0  0  0  0  0  0  0  0
    3.0417   -0.1292    0.0000 N   0  0  0  0  0  0  0  0  0  0  0  0
    6.7042    1.9375    0.0000 C   0  0  0  0  0  0  0  0  0  0  0  0
    5.9792    2.3500    0.0000 N   0  0  0  0  0  0  0  0  0  0  0  0
    2.3792    1.0333    0.0000 C   0  0  0  0  0  0  0  0  0  0  0  0
    8.8292   -2.5917    0.0000 C   0  0  0  0  0  0  0  0  0  0  0  0
    2.2292   -0.3000    0.0000 O   0  0  0  0  0  0  0  0  0  0  0  0
    9.7292   -1.6000    0.0000 N   0  0  0  0  0  0  0  0  0  0  0  0
    3.1292    0.6875    0.0000 C   0  0  0  0  0  0  0  0  0  0  0  0
    8.9167   -1.7750    0.0000 N   0  0  0  0  0  0  0  0  0  0  0  0
   10.1417   -2.3125    0.0000 N   0  0  0  0  0  0  0  0  0  0  0  0
    1.8292    0.4125    0.0000 C   0  0  0  0  0  0  0  0  0  0  0  0
    5.2667    1.9375    0.0000 C   0  0  0  0  0  0  0  0  0  0  0  0
    3.8417    1.1083    0.0000 C   0  0  0  0  0  0  0  0  0  0  0  0
    4.5542    0.6958    0.0000 C   0  0  0  0  0  0  0  0  0  0  0  0
    9.5917   -2.9250    0.0000 N   0  0  0  0  0  0  0  0  0  0  0  0
    8.1167   -3.0125    0.0000 C   0  0  0  0  0  0  0  0  0  0  0  0
    7.4042   -2.6000    0.0000 C   0  0  0  0  0  0  0  0  0  0  0  0
    1.9542    1.7458    0.0000 C   0  0  0  0  0  0  0  0  0  0  0  0
    7.4167    0.6958    0.0000 C   0  0  0  0  0  0  0  0  0  0  0  0
    5.9792   -0.1292    0.0000 O   0  0  0  0  0  0  0  0  0  0  0  0
    7.4042   -1.7750    0.0000 C   0  0  0  0  0  0  0  0  0  0  0  0
    3.8417    1.9333    0.0000 C   0  0  0  0  0  0  0  0  0  0  0  0
    1.0667    0.7500    0.0000 C   0  0  0  0  0  0  0  0  0  0  0  0
    4.5542    2.3500    0.0000 C   0  0  0  0  0  0  0  0  0  0  0  0
    1.1542    1.5750    0.0000 C   0  0  0  0  0  0  0  0  0  0  0  0
    2.2917    2.5000    0.0000 O   0  0  0  0  0  0  0  0  0  0  0  0
    8.1292   -1.3625    0.0000 C   0  0  0  0  0  0  0  0  0  0  0  0
    6.6917   -1.3625    0.0000 C   0  0  0  0  0  0  0  0  0  0  0  0
    7.4167   -0.1292    0.0000 C   0  0  0  0  0  0  0  0  0  0  0  0
    3.6542   -0.6792    0.0000 C   0  0  0  0  0  0  0  0  0  0  0  0
    7.4167    2.3458    0.0000 C   0  0  0  0  0  0  0  0  0  0  0  0
    8.1292   -0.5375    0.0000 C   0  0  0  0  0  0  0  0  0  0  0  0
    6.6917   -0.5375    0.0000 C   0  0  0  0  0  0  0  0  0  0  0  0
    8.1167   -3.8375    0.0000 C   0  0  0  0  0  0  0  0  0  0  0  0
    6.6917   -3.0125    0.0000 C   0  0  0  0  0  0  0  0  0  0  0  0
    8.1292    1.9333    0.0000 C   0  0  0  0  0  0  0  0  0  0  0  0
    8.8417    2.3458    0.0000 C   0  0  0  0  0  0  0  0  0  0  0  0
    7.4042   -4.2500    0.0000 C   0  0  0  0  0  0  0  0  0  0  0  0
    6.6917   -3.8375    0.0000 C   0  0  0  0  0  0  0  0  0  0  0  0
    9.5542    1.9250    0.0000 C   0  0  0  0  0  0  0  0  0  0  0  0
  2  1  1  0
  3  2  1  0
 11  4  1  0
  5  1  1  0
  6  5  2  0
  7 11  1  0
  8 19  1  0
  9  4  1  0
 10 12  1  0
 11 16  1  6
 12  8  1  0
 13 18  1  0
  7 14  1  0
 15  6  1  0
 16 17  1  0
 17  3  2  0
 18  8  2  0
 19 20  1  0
 20 24  1  0
  7 21  1  1
 22  1  1  0
 23  2  2  0
 24 31  2  0
 25 27  1  0
 14 26  1  1
 27 15  2  0
 28 21  1  0
 29 21  2  0
 30 35  2  0
 31 36  1  0
 32 22  1  0
 33  4  1  0
 34  5  1  0
 35 32  1  0
 36 32  2  0
 37 19  2  0
 38 20  2  0
 39 34  1  0
 40 39  1  0
 41 42  2  0
 42 38  1  0
 43 40  1  0
 15  3  1  0
 30 24  1  0
 25 16  2  0
 14  9  1  0
 28 26  1  0
 41 37  1  0
 13 10  2  0
M  END
>  <From>  (1) 
www.bindingDB.org

>  <BindingDB Reactant_set_id>  (1) 
50468490

>  <Ligand InChI>  (1) 
InChI=1S/C33H33N7O3/c1-3-4-9-29-34-26-15-14-22(31-30-27(41)16-17-28(30)43-39(31)2)18-25(26)33(42)40(29)19-20-10-12-21(13-11-20)23-7-5-6-8-24(23)32-35-37-38-36-32/h5-8,10-15,18,28,30-31H,3-4,9,16-17,19H2,1-2H3,(H,35,36,37,38)/t28-,30+,31-/m0/s1

>  <Ligand InChI Key>  (1) 
TYECQFDFMUOJRO-NBZVVWIMSA-N

>  <BindingDB MonomerID>  (1) 
50282891

>  <BindingDB Ligand Name>  (1) 
2-Butyl-6-((3R,3aS,6aS)-2-methyl-4-oxo-hexahydro-cyclopenta[d]isoxazol-3-yl)-3-[2'-(1H-tetrazol-5-yl)-biphenyl-4-ylmethyl]-3H-quinazolin-4-one::CHEMBL53174

>  <Target Name>  (1) 
Type-1 angiotensin II receptor

>  <Target Source Organism According to Curator or DataSource>  (1) 
Bos taurus

>  <Ki (nM)>  (1) 


>  <IC50 (nM)>  (1) 
 98

>  <Kd (nM)>  (1) 


>  <EC50 (nM)>  (1) 


>  <kon (M-1-s-1)>  (1) 


>  <koff (s-1)>  (1) 


>  <pH>  (1) 


>  <Temp C>  (1) 


>  <Curation/DataSource>  (1) 
ChEMBL

>  <Article DOI>  (1) 
10.1016/S0960-894X(01)80377-2

>  <BindingDB Entry DOI>  (1) 
10.7270/Q21V5DXH

>  <PMID>  (1) 


>  <PubChem AID>  (1) 


>  <Patent Number>  (1) 


>  <Authors>  (1) 
Levin, JI; Venkatesan, AM; Chan, PS; Bailey, TK; Vice, G; Coupet, J

>  <Institution>  (1) 
TBA

>  <Link to Ligand in BindingDB>  (1) 
http://www.bindingdb.org/bind/chemsearch/marvin/MolStructure.jsp?monomerid=50282891

>  <Link to Ligand-Target Pair in BindingDB>  (1) 
http://www.bindingdb.org/jsp/dbsearch/PrimarySearch_ki.jsp?energyterm=kJ/mole&tag=r21&monomerid=50282891&enzyme=Type-1+angiotensin+II+receptor&column=ki&startPg=0&Increment=50&submit=Search

>  <Ligand HET ID in PDB>  (1) 


>  <PDB ID(s) for Ligand-Target Complex>  (1) 


>  <PubChem CID of Ligand>  (1) 
9894404

>  <PubChem SID of Ligand>  (1) 
104124565

>  <ChEBI ID of Ligand>  (1) 


>  <ChEMBL ID of Ligand>  (1) 
CHEMBL53174

>  <DrugBank ID of Ligand>  (1) 


>  <IUPHAR_GRAC ID of Ligand>  (1) 


>  <KEGG ID of Ligand>  (1) 


>  <ZINC ID of Ligand>  (1) 
ZINC29483370

>  <Number of Protein Chains in Target (bigger than 1 implies a multichain complex)>  (1) 
1

>  <BindingDB Target Chain Sequence>  (1) 
MILNSSTEDGIKRIQDDCPKAGRHNYIFIMIPTLYSIIFVVGIFGNSLVVIVIYFYMKLKTVASVFLLNLALADLCFLLTLPLWAVYTAMEYRWPFGNYLCKIASASVSFNLYASVFLLTCLSIDRYLAIVHPMKSRLRRTMLVAKVTCIIIWLLAGLASLPTIIHRNVFFIENTNITVCAFHYESQNSTLPVGLGLTKNILGFLFPFLIILTSYTLIWKTLKKAYEIQKNKPRKDDIFKIILAIVLFFFFSWVPHQIFTFMDVLIQLGLIRDCKIEDIVDTAMPITICLAYFNNCLNPLFYGFLGKKFKKYFLQLLKYIPPKAKSHSNLSTKMSTLSYRPSENGNSSTKKPAPCIEVE

>  <PDB ID(s) of Target Chain>  (1) 


>  <UniProt (SwissProt) Recommended Name of Target Chain>  (1) 
Type-1 angiotensin II receptor

>  <UniProt (SwissProt) Entry Name of Target Chain>  (1) 
AGTR1_BOVIN

>  <UniProt (SwissProt) Primary ID of Target Chain>  (1) 
P25104

>  <UniProt (SwissProt) Secondary ID(s) of Target Chain>  (1) 


>  <UniProt (SwissProt) Alternative ID(s) of Target Chain>  (1) 


>  <UniProt (TrEMBL) Submitted Name of Target Chain>  (1) 


>  <UniProt (TrEMBL) Entry Name of Target Chain>  (1) 


>  <UniProt (TrEMBL) Primary ID of Target Chain>  (1) 


>  <UniProt (TrEMBL) Secondary ID(s) of Target Chain>  (1) 


>  <UniProt (TrEMBL) Alternative ID(s) of Target Chain>  (1) 


$$$$
