
     RDKit          2D

 33 36  0  0  0  0  0  0  0  0999 V2000
    3.9500   -2.8042    0.0000 N   0  0  0  0  0  0  0  0  0  0  0  0
    4.7292   -2.5542    0.0000 C   0  0  0  0  0  0  0  0  0  0  0  0
    3.9500   -1.4792    0.0000 N   0  0  0  0  0  0  0  0  0  0  0  0
    3.4625   -2.1417    0.0000 C   0  0  0  0  0  0  0  0  0  0  0  0
    4.7292   -1.7292    0.0000 C   0  0  0  0  0  0  0  0  0  0  0  0
    5.4417   -2.9667    0.0000 N   0  0  0  0  0  0  0  0  0  0  0  0
    6.3875   -5.4417    0.0000 N   0  0  0  0  0  0  0  0  0  0  0  0
    7.1000   -5.0292    0.0000 C   0  0  0  0  0  0  0  0  0  0  0  0
    5.4417   -1.3167    0.0000 C   0  0  0  0  0  0  0  0  0  0  0  0
    7.1167   -4.2042    0.0000 C   0  0  0  0  0  0  0  0  0  0  0  0
    3.6875   -3.5917    0.0000 C   0  0  0  0  0  0  0  0  0  0  0  0
    5.6750   -5.0292    0.0000 C   0  0  0  0  0  0  0  0  0  0  0  0
    6.1625   -2.5542    0.0000 C   0  0  0  0  0  0  0  0  0  0  0  0
    6.1625   -1.7292    0.0000 C   0  0  0  0  0  0  0  0  0  0  0  0
    6.4125   -3.7792    0.0000 O   0  0  0  0  0  0  0  0  0  0  0  0
    7.8125   -5.4417    0.0000 C   0  0  0  0  0  0  0  0  0  0  0  0
    4.9542   -5.4417    0.0000 C   0  0  0  0  0  0  0  0  0  0  0  0
    5.6667   -4.2042    0.0000 C   0  0  0  0  0  0  0  0  0  0  0  0
    4.2375   -4.2042    0.0000 C   0  0  0  0  0  0  0  0  0  0  0  0
    7.8375   -3.8125    0.0000 O   0  0  0  0  0  0  0  0  0  0  0  0
    2.6375   -2.1417    0.0000 C   0  0  0  0  0  0  0  0  0  0  0  0
    4.9500   -3.7917    0.0000 C   0  0  0  0  0  0  0  0  0  0  0  0
    4.2375   -5.0292    0.0000 C   0  0  0  0  0  0  0  0  0  0  0  0
    6.3875   -6.2667    0.0000 C   0  0  0  0  0  0  0  0  0  0  0  0
    5.4375   -0.4917    0.0000 C   0  0  0  0  0  0  0  0  0  0  0  0
    6.8750   -2.9667    0.0000 C   0  0  0  0  0  0  0  0  0  0  0  0
    8.5292   -5.0292    0.0000 C   0  0  0  0  0  0  0  0  0  0  0  0
    7.8125   -6.2667    0.0000 C   0  0  0  0  0  0  0  0  0  0  0  0
    2.2250   -1.4292    0.0000 C   0  0  0  0  0  0  0  0  0  0  0  0
    5.6750   -6.6792    0.0000 C   0  0  0  0  0  0  0  0  0  0  0  0
    9.2375   -5.4292    0.0000 C   0  0  0  0  0  0  0  0  0  0  0  0
    8.5292   -6.6792    0.0000 C   0  0  0  0  0  0  0  0  0  0  0  0
    9.2417   -6.2667    0.0000 C   0  0  0  0  0  0  0  0  0  0  0  0
  2  1  1  0
  3  4  2  0
  4  1  1  0
  5  2  2  0
  6  2  1  0
  7 12  1  0
  8  7  1  0
  9  5  1  0
 10  8  1  0
 11  1  1  0
 12 17  2  0
 13  6  2  0
 14 13  1  0
 15 10  2  0
 16  8  1  0
 17 23  1  0
 18 22  2  0
 19 11  1  0
 20 10  1  0
 21  4  1  0
 22 19  1  0
 23 19  2  0
 24  7  1  0
 25  9  1  0
 26 13  1  0
 27 16  2  0
 28 16  1  0
 29 21  1  0
 30 24  1  0
 31 27  1  0
 32 28  2  0
 33 32  1  0
  5  3  1  0
 12 18  1  0
  9 14  2  0
 33 31  2  0
M  END
>  <From>  (1) 
www.bindingDB.org

>  <BindingDB Reactant_set_id>  (1) 
50062215

>  <Ligand InChI>  (1) 
InChI=1S/C27H30N4O2/c1-5-23-29-24-18(3)16-19(4)28-26(24)31(23)17-20-12-14-22(15-13-20)30(6-2)25(27(32)33)21-10-8-7-9-11-21/h7-16,25H,5-6,17H2,1-4H3,(H,32,33)

>  <Ligand InChI Key>  (1) 
PFOYNRHXNOJZBY-UHFFFAOYSA-N

>  <BindingDB MonomerID>  (1) 
50043457

>  <BindingDB Ligand Name>  (1) 
CHEMBL135346::{Ethyl-[4-(2-ethyl-5,7-dimethyl-imidazo[4,5-b]pyridin-3-ylmethyl)-phenyl]-amino}-phenyl-acetic acid

>  <Target Name>  (1) 
Type-1 angiotensin II receptor

>  <Target Source Organism According to Curator or DataSource>  (1) 
Oryctolagus cuniculus

>  <Ki (nM)>  (1) 


>  <IC50 (nM)>  (1) 
 4

>  <Kd (nM)>  (1) 


>  <EC50 (nM)>  (1) 


>  <kon (M-1-s-1)>  (1) 


>  <koff (s-1)>  (1) 


>  <pH>  (1) 


>  <Temp C>  (1) 


>  <Curation/DataSource>  (1) 
ChEMBL

>  <Article DOI>  (1) 
10.1021/jm00078a014

>  <BindingDB Entry DOI>  (1) 
10.7270/Q22V2F6P

>  <PMID>  (1) 
8277506

>  <PubChem AID>  (1) 


>  <Patent Number>  (1) 


>  <Authors>  (1) 
Dhanoa, DS; Bagley, SW; Chang, RS; Lotti, VJ; Chen, TB; Kivlighn, SD; Zingaro, GJ; Siegl, PK; Patchett, AA; Greenlee, WJ

>  <Institution>  (1) 
Merck Research Laboratories

>  <Link to Ligand in BindingDB>  (1) 
http://www.bindingdb.org/bind/chemsearch/marvin/MolStructure.jsp?monomerid=50043457

>  <Link to Ligand-Target Pair in BindingDB>  (1) 
http://www.bindingdb.org/jsp/dbsearch/PrimarySearch_ki.jsp?energyterm=kJ/mole&tag=r21&monomerid=50043457&enzyme=Type-1+angiotensin+II+receptor&column=ki&startPg=0&Increment=50&submit=Search

>  <Ligand HET ID in PDB>  (1) 


>  <PDB ID(s) for Ligand-Target Complex>  (1) 


>  <PubChem CID of Ligand>  (1) 
10456041

>  <PubChem SID of Ligand>  (1) 
103974885

>  <ChEBI ID of Ligand>  (1) 


>  <ChEMBL ID of Ligand>  (1) 
CHEMBL135346

>  <DrugBank ID of Ligand>  (1) 


>  <IUPHAR_GRAC ID of Ligand>  (1) 


>  <KEGG ID of Ligand>  (1) 


>  <ZINC ID of Ligand>  (1) 
ZINC13732462

>  <Number of Protein Chains in Target (bigger than 1 implies a multichain complex)>  (1) 
1

>  <BindingDB Target Chain Sequence>  (1) 
MMLNSSTEDGIKRIQDDCPKAGRHNYIFVMIPTLYSIIFVVGIFGNSLAVIVIYFYMKLKTVASVFLLNLALADLCFLLTLPLWAVYTAMEYRWPFGNYLCKIASASVSFNLYASVFLLTCLSIDRYLAIVHPMKSRLRRTMLVAKVTCIIIWLLAGLASLPAIIHRNVFFIENTNITVCAFHYESQNSTLPIGLGLTKNILGFLFPFLIILTSYTLIWKALKKAYEIQKNKPRNDDIFKIIMAIVLFFFFSWVPHQIFTFLDVLIQLGVIHDCRIADIVDTAMPITICIAYFNNCLNPLFYGFLGKKFKKYFLQLLKYIPPKAKSHSNLSTKMSTLSYRPSDNVSSSSKKPVPCFEVE

>  <PDB ID(s) of Target Chain>  (1) 
6DO1,6OS0,6OS1,6OS2

>  <UniProt (SwissProt) Recommended Name of Target Chain>  (1) 
Type-1 angiotensin II receptor

>  <UniProt (SwissProt) Entry Name of Target Chain>  (1) 
AGTR1_RABIT

>  <UniProt (SwissProt) Primary ID of Target Chain>  (1) 
P34976

>  <UniProt (SwissProt) Secondary ID(s) of Target Chain>  (1) 


>  <UniProt (SwissProt) Alternative ID(s) of Target Chain>  (1) 


>  <UniProt (TrEMBL) Submitted Name of Target Chain>  (1) 


>  <UniProt (TrEMBL) Entry Name of Target Chain>  (1) 


>  <UniProt (TrEMBL) Primary ID of Target Chain>  (1) 


>  <UniProt (TrEMBL) Secondary ID(s) of Target Chain>  (1) 


>  <UniProt (TrEMBL) Alternative ID(s) of Target Chain>  (1) 


$$$$
