
     RDKit          2D

 41 45  0  0  0  0  0  0  0  0999 V2000
    4.2167    1.2875    0.0000 S   0  0  0  0  0  0  0  0  0  0  0  0
    4.3042    0.4708    0.0000 C   0  0  0  0  0  0  0  0  0  0  0  0
    0.2167    1.3833    0.0000 N   0  0  0  0  0  0  0  0  0  0  0  0
   -0.5708    1.6375    0.0000 C   0  0  0  0  0  0  0  0  0  0  0  0
    0.2167    2.7208    0.0000 N   0  0  0  0  0  0  0  0  0  0  0  0
    4.2167    2.1125    0.0000 N   0  0  0  0  0  0  0  0  0  0  0  0
    0.7042    2.0500    0.0000 C   0  0  0  0  0  0  0  0  0  0  0  0
    3.7000   -0.0875    0.0000 C   0  0  0  0  0  0  0  0  0  0  0  0
   -0.5708    2.4625    0.0000 C   0  0  0  0  0  0  0  0  0  0  0  0
    5.0250    0.0583    0.0000 S   0  0  0  0  0  0  0  0  0  0  0  0
   -1.2833    1.2208    0.0000 N   0  0  0  0  0  0  0  0  0  0  0  0
    4.8542   -0.7500    0.0000 C   0  0  0  0  0  0  0  0  0  0  0  0
    4.9250    2.5333    0.0000 C   0  0  0  0  0  0  0  0  0  0  0  0
    4.0292   -0.8375    0.0000 C   0  0  0  0  0  0  0  0  0  0  0  0
   -1.2833    2.8750    0.0000 C   0  0  0  0  0  0  0  0  0  0  0  0
    4.8875    1.7750    0.0000 O   0  0  0  0  0  0  0  0  0  0  0  0
    3.4667    1.6208    0.0000 O   0  0  0  0  0  0  0  0  0  0  0  0
    0.4750    0.5958    0.0000 C   0  0  0  0  0  0  0  0  0  0  0  0
    2.8917    0.0833    0.0000 C   0  0  0  0  0  0  0  0  0  0  0  0
   -1.9958    1.6333    0.0000 C   0  0  0  0  0  0  0  0  0  0  0  0
   -1.9958    2.4625    0.0000 C   0  0  0  0  0  0  0  0  0  0  0  0
    4.9167    3.3583    0.0000 O   0  0  0  0  0  0  0  0  0  0  0  0
    5.6417    2.1250    0.0000 C   0  0  0  0  0  0  0  0  0  0  0  0
    5.4042   -1.3625    0.0000 C   0  0  0  0  0  0  0  0  0  0  0  0
    2.6292    0.8708    0.0000 C   0  0  0  0  0  0  0  0  0  0  0  0
    2.3417   -0.5292    0.0000 C   0  0  0  0  0  0  0  0  0  0  0  0
    1.2792    0.4250    0.0000 C   0  0  0  0  0  0  0  0  0  0  0  0
    1.5292    2.0500    0.0000 C   0  0  0  0  0  0  0  0  0  0  0  0
    1.5292   -0.3542    0.0000 C   0  0  0  0  0  0  0  0  0  0  0  0
    1.8292    1.0375    0.0000 C   0  0  0  0  0  0  0  0  0  0  0  0
   -1.2875    3.7083    0.0000 C   0  0  0  0  0  0  0  0  0  0  0  0
    5.1542   -2.1500    0.0000 C   0  0  0  0  0  0  0  0  0  0  0  0
   -2.7125    1.2208    0.0000 C   0  0  0  0  0  0  0  0  0  0  0  0
    5.6417    1.3000    0.0000 C   0  0  0  0  0  0  0  0  0  0  0  0
    6.3500    2.5458    0.0000 C   0  0  0  0  0  0  0  0  0  0  0  0
    1.9417    2.7708    0.0000 C   0  0  0  0  0  0  0  0  0  0  0  0
    5.7042   -2.7625    0.0000 C   0  0  0  0  0  0  0  0  0  0  0  0
    4.3417   -2.3167    0.0000 C   0  0  0  0  0  0  0  0  0  0  0  0
    6.3625    0.8958    0.0000 C   0  0  0  0  0  0  0  0  0  0  0  0
    7.0667    2.1458    0.0000 C   0  0  0  0  0  0  0  0  0  0  0  0
    7.0750    1.3083    0.0000 C   0  0  0  0  0  0  0  0  0  0  0  0
  2  1  1  0
  3 18  1  0
  4  3  1  0
  5  7  2  0
  6  1  1  0
  7  3  1  0
  8  2  2  0
  9  4  2  0
 10  2  1  0
 11  4  1  0
 12 10  1  0
 13  6  1  0
 14  8  1  0
 15  9  1  0
 16  1  2  0
 17  1  2  0
 18 27  1  0
 19  8  1  0
 20 11  2  0
 21 20  1  0
 22 13  2  0
 23 13  1  0
 24 12  1  0
 25 19  2  0
 26 19  1  0
 27 29  1  0
 28  7  1  0
 29 26  2  0
 30 25  1  0
 31 15  1  0
 32 24  1  0
 33 20  1  0
 34 23  2  0
 35 23  1  0
 36 28  1  0
 37 32  1  0
 38 32  1  0
 39 34  1  0
 40 35  2  0
 41 40  1  0
 12 14  2  0
 27 30  2  0
 41 39  2  0
  9  5  1  0
 21 15  2  0
M  END
>  <From>  (1) 
www.bindingDB.org

>  <BindingDB Reactant_set_id>  (1) 
50002561

>  <Ligand InChI>  (1) 
InChI=1S/C32H34N4O3S2/c1-6-28-34-29-21(4)17-22(5)33-30(29)36(28)19-23-12-14-24(15-13-23)27-18-26(16-20(2)3)40-32(27)41(38,39)35-31(37)25-10-8-7-9-11-25/h7-15,17-18,20H,6,16,19H2,1-5H3,(H,35,37)

>  <Ligand InChI Key>  (1) 
CSOGXUCCWJNWIV-UHFFFAOYSA-N

>  <BindingDB MonomerID>  (1) 
50282308

>  <BindingDB Ligand Name>  (1) 
3-[4-(2-Ethyl-5,7-dimethyl-imidazo[4,5-b]pyridin-3-ylmethyl)-phenyl]-5-isobutyl-thiophene-2-sulfonic acid benzoylamide::CHEMBL300154

>  <Target Name>  (1) 
Type-1 angiotensin II receptor

>  <Target Source Organism According to Curator or DataSource>  (1) 
Oryctolagus cuniculus

>  <Ki (nM)>  (1) 


>  <IC50 (nM)>  (1) 
 24

>  <Kd (nM)>  (1) 


>  <EC50 (nM)>  (1) 


>  <kon (M-1-s-1)>  (1) 


>  <koff (s-1)>  (1) 


>  <pH>  (1) 


>  <Temp C>  (1) 


>  <Curation/DataSource>  (1) 
ChEMBL

>  <Article DOI>  (1) 
10.1016/S0960-894X(01)81145-8

>  <BindingDB Entry DOI>  (1) 
10.7270/Q22Z15GM

>  <PMID>  (1) 


>  <PubChem AID>  (1) 


>  <Patent Number>  (1) 


>  <Authors>  (1) 
Kevin, NJ; Rivero, RA; Greenlee, WJ; Chang, RS; Chen, TB

>  <Institution>  (1) 
TBA

>  <Link to Ligand in BindingDB>  (1) 
http://www.bindingdb.org/bind/chemsearch/marvin/MolStructure.jsp?monomerid=50282308

>  <Link to Ligand-Target Pair in BindingDB>  (1) 
http://www.bindingdb.org/jsp/dbsearch/PrimarySearch_ki.jsp?energyterm=kJ/mole&tag=r21&monomerid=50282308&enzyme=Type-1+angiotensin+II+receptor&column=ki&startPg=0&Increment=50&submit=Search

>  <Ligand HET ID in PDB>  (1) 


>  <PDB ID(s) for Ligand-Target Complex>  (1) 


>  <PubChem CID of Ligand>  (1) 
44300734

>  <PubChem SID of Ligand>  (1) 
104123982

>  <ChEBI ID of Ligand>  (1) 


>  <ChEMBL ID of Ligand>  (1) 
CHEMBL300154

>  <DrugBank ID of Ligand>  (1) 


>  <IUPHAR_GRAC ID of Ligand>  (1) 


>  <KEGG ID of Ligand>  (1) 


>  <ZINC ID of Ligand>  (1) 
ZINC29562247

>  <Number of Protein Chains in Target (bigger than 1 implies a multichain complex)>  (1) 
1

>  <BindingDB Target Chain Sequence>  (1) 
MMLNSSTEDGIKRIQDDCPKAGRHNYIFVMIPTLYSIIFVVGIFGNSLAVIVIYFYMKLKTVASVFLLNLALADLCFLLTLPLWAVYTAMEYRWPFGNYLCKIASASVSFNLYASVFLLTCLSIDRYLAIVHPMKSRLRRTMLVAKVTCIIIWLLAGLASLPAIIHRNVFFIENTNITVCAFHYESQNSTLPIGLGLTKNILGFLFPFLIILTSYTLIWKALKKAYEIQKNKPRNDDIFKIIMAIVLFFFFSWVPHQIFTFLDVLIQLGVIHDCRIADIVDTAMPITICIAYFNNCLNPLFYGFLGKKFKKYFLQLLKYIPPKAKSHSNLSTKMSTLSYRPSDNVSSSSKKPVPCFEVE

>  <PDB ID(s) of Target Chain>  (1) 
6DO1,6OS0,6OS1,6OS2

>  <UniProt (SwissProt) Recommended Name of Target Chain>  (1) 
Type-1 angiotensin II receptor

>  <UniProt (SwissProt) Entry Name of Target Chain>  (1) 
AGTR1_RABIT

>  <UniProt (SwissProt) Primary ID of Target Chain>  (1) 
P34976

>  <UniProt (SwissProt) Secondary ID(s) of Target Chain>  (1) 


>  <UniProt (SwissProt) Alternative ID(s) of Target Chain>  (1) 


>  <UniProt (TrEMBL) Submitted Name of Target Chain>  (1) 


>  <UniProt (TrEMBL) Entry Name of Target Chain>  (1) 


>  <UniProt (TrEMBL) Primary ID of Target Chain>  (1) 


>  <UniProt (TrEMBL) Secondary ID(s) of Target Chain>  (1) 


>  <UniProt (TrEMBL) Alternative ID(s) of Target Chain>  (1) 


$$$$
