
     RDKit          2D

 33 37  0  0  0  0  0  0  0  0999 V2000
    3.6818    2.3350    0.0000 N   0  0  0  0  0  0  0  0  0  0  0  0
   -0.0333    1.6220    0.0000 C   0  0  0  0  0  0  0  0  0  0  0  0
   -0.6004    2.2141    0.0000 N   0  0  0  0  0  0  0  0  0  0  0  0
    4.4073    2.7227    0.0000 C   0  0  0  0  0  0  0  0  0  0  0  0
    3.4567    3.6484    0.0000 N   0  0  0  0  0  0  0  0  0  0  0  0
    3.0897    2.9229    0.0000 C   0  0  0  0  0  0  0  0  0  0  0  0
    5.1829    2.4350    0.0000 C   0  0  0  0  0  0  0  0  0  0  0  0
    0.7047    1.9764    0.0000 N   0  0  0  0  0  0  0  0  0  0  0  0
    4.2697    3.5358    0.0000 C   0  0  0  0  0  0  0  0  0  0  0  0
   -0.2127    2.9354    0.0000 C   0  0  0  0  0  0  0  0  0  0  0  0
   -0.1459    0.7964    0.0000 C   0  0  0  0  0  0  0  0  0  0  0  0
    0.5921    2.7978    0.0000 O   0  0  0  0  0  0  0  0  0  0  0  0
    5.3205    1.6220    0.0000 C   0  0  0  0  0  0  0  0  0  0  0  0
    0.5046    0.2835    0.0000 C   0  0  0  0  0  0  0  0  0  0  0  0
    3.5650    1.5219    0.0000 C   0  0  0  0  0  0  0  0  0  0  0  0
    1.2676    0.5962    0.0000 C   0  0  0  0  0  0  0  0  0  0  0  0
   -0.5879    3.6859    0.0000 O   0  0  0  0  0  0  0  0  0  0  0  0
    4.6950    1.0966    0.0000 O   0  0  0  0  0  0  0  0  0  0  0  0
    1.9181    0.0834    0.0000 C   0  0  0  0  0  0  0  0  0  0  0  0
    1.3802    1.4135    0.0000 C   0  0  0  0  0  0  0  0  0  0  0  0
    2.8020    1.2092    0.0000 C   0  0  0  0  0  0  0  0  0  0  0  0
    6.0960    1.3385    0.0000 O   0  0  0  0  0  0  0  0  0  0  0  0
    5.8166    2.9646    0.0000 C   0  0  0  0  0  0  0  0  0  0  0  0
    2.2683    2.7978    0.0000 C   0  0  0  0  0  0  0  0  0  0  0  0
    2.6811    0.3961    0.0000 C   0  0  0  0  0  0  0  0  0  0  0  0
    2.1515    1.7220    0.0000 C   0  0  0  0  0  0  0  0  0  0  0  0
    4.8952    4.0571    0.0000 C   0  0  0  0  0  0  0  0  0  0  0  0
   -0.9132    0.4878    0.0000 C   0  0  0  0  0  0  0  0  0  0  0  0
    0.3878   -0.5296    0.0000 C   0  0  0  0  0  0  0  0  0  0  0  0
    5.6707    3.7735    0.0000 C   0  0  0  0  0  0  0  0  0  0  0  0
    1.9681    2.0348    0.0000 C   0  0  0  0  0  0  0  0  0  0  0  0
   -1.0340   -0.3294    0.0000 C   0  0  0  0  0  0  0  0  0  0  0  0
   -0.3753   -0.8423    0.0000 C   0  0  0  0  0  0  0  0  0  0  0  0
  2 11  1  0
  3  2  2  0
  4  1  1  0
  5  6  2  0
  6  1  1  0
  7  4  1  0
  8  2  1  0
  9  4  2  0
 10  3  1  0
 11 14  1  0
 12  8  1  0
 13  7  1  0
 14 16  1  0
 15  1  1  0
 16 20  2  0
 17 10  2  0
 18 13  2  0
 19 25  2  0
 20 26  1  0
 21 15  1  0
 22 13  1  0
 23  7  2  0
 24  6  1  0
 25 21  1  0
 26 21  2  0
 27  9  1  0
 28 11  2  0
 29 14  2  0
 30 27  2  0
 31 24  1  0
 32 33  2  0
 33 29  1  0
  5  9  1  0
 19 16  1  0
 30 23  1  0
 32 28  1  0
 10 12  1  0
M  END
>  <From>  (1) 
www.bindingDB.org

>  <BindingDB Reactant_set_id>  (1) 
50472804

>  <Ligand InChI>  (1) 
InChI=1S/C25H20N4O4/c1-2-21-26-20-9-5-8-19(24(30)31)22(20)29(21)14-15-10-12-16(13-11-15)17-6-3-4-7-18(17)23-27-25(32)33-28-23/h3-13H,2,14H2,1H3,(H,30,31)(H,27,28,32)

>  <Ligand InChI Key>  (1) 
MYVYNJHLRFIDBV-UHFFFAOYSA-N

>  <BindingDB MonomerID>  (1) 
50284995

>  <BindingDB Ligand Name>  (1) 
2-Ethyl-3-[2'-(5-oxo-4,5-dihydro-[1,2,4]oxadiazol-3-yl)-biphenyl-4-ylmethyl]-3H-benzoimidazole-4-carboxylic acid::CHEMBL291502

>  <Target Name>  (1) 
Type-1 angiotensin II receptor

>  <Target Source Organism According to Curator or DataSource>  (1) 
Bos taurus

>  <Ki (nM)>  (1) 


>  <IC50 (nM)>  (1) 
 310

>  <Kd (nM)>  (1) 


>  <EC50 (nM)>  (1) 


>  <kon (M-1-s-1)>  (1) 


>  <koff (s-1)>  (1) 


>  <pH>  (1) 


>  <Temp C>  (1) 


>  <Curation/DataSource>  (1) 
ChEMBL

>  <Article DOI>  (1) 
10.1016/0960-894X(95)00319-O

>  <BindingDB Entry DOI>  (1) 
10.7270/Q26M36SM

>  <PMID>  (1) 


>  <PubChem AID>  (1) 


>  <Patent Number>  (1) 


>  <Authors>  (1) 
Kohara, Y; Imamiya, E; Kubo, K; Wada, T; Inada, Y; Naka, T

>  <Institution>  (1) 
TBA

>  <Link to Ligand in BindingDB>  (1) 
http://www.bindingdb.org/bind/chemsearch/marvin/MolStructure.jsp?monomerid=50284995

>  <Link to Ligand-Target Pair in BindingDB>  (1) 
http://www.bindingdb.org/jsp/dbsearch/PrimarySearch_ki.jsp?energyterm=kJ/mole&tag=r21&monomerid=50284995&enzyme=Type-1+angiotensin+II+receptor&column=ki&startPg=0&Increment=50&submit=Search

>  <Ligand HET ID in PDB>  (1) 


>  <PDB ID(s) for Ligand-Target Complex>  (1) 


>  <PubChem CID of Ligand>  (1) 
10365956

>  <PubChem SID of Ligand>  (1) 
104126566

>  <ChEBI ID of Ligand>  (1) 


>  <ChEMBL ID of Ligand>  (1) 
CHEMBL291502

>  <DrugBank ID of Ligand>  (1) 


>  <IUPHAR_GRAC ID of Ligand>  (1) 


>  <KEGG ID of Ligand>  (1) 


>  <ZINC ID of Ligand>  (1) 
ZINC29553025

>  <Number of Protein Chains in Target (bigger than 1 implies a multichain complex)>  (1) 
1

>  <BindingDB Target Chain Sequence>  (1) 
MILNSSTEDGIKRIQDDCPKAGRHNYIFIMIPTLYSIIFVVGIFGNSLVVIVIYFYMKLKTVASVFLLNLALADLCFLLTLPLWAVYTAMEYRWPFGNYLCKIASASVSFNLYASVFLLTCLSIDRYLAIVHPMKSRLRRTMLVAKVTCIIIWLLAGLASLPTIIHRNVFFIENTNITVCAFHYESQNSTLPVGLGLTKNILGFLFPFLIILTSYTLIWKTLKKAYEIQKNKPRKDDIFKIILAIVLFFFFSWVPHQIFTFMDVLIQLGLIRDCKIEDIVDTAMPITICLAYFNNCLNPLFYGFLGKKFKKYFLQLLKYIPPKAKSHSNLSTKMSTLSYRPSENGNSSTKKPAPCIEVE

>  <PDB ID(s) of Target Chain>  (1) 


>  <UniProt (SwissProt) Recommended Name of Target Chain>  (1) 
Type-1 angiotensin II receptor

>  <UniProt (SwissProt) Entry Name of Target Chain>  (1) 
AGTR1_BOVIN

>  <UniProt (SwissProt) Primary ID of Target Chain>  (1) 
P25104

>  <UniProt (SwissProt) Secondary ID(s) of Target Chain>  (1) 


>  <UniProt (SwissProt) Alternative ID(s) of Target Chain>  (1) 


>  <UniProt (TrEMBL) Submitted Name of Target Chain>  (1) 


>  <UniProt (TrEMBL) Entry Name of Target Chain>  (1) 


>  <UniProt (TrEMBL) Primary ID of Target Chain>  (1) 


>  <UniProt (TrEMBL) Secondary ID(s) of Target Chain>  (1) 


>  <UniProt (TrEMBL) Alternative ID(s) of Target Chain>  (1) 


$$$$
