
     RDKit          2D

 36 40  0  0  0  0  0  0  0  0999 V2000
    1.4167   -2.2417    0.0000 N   0  0  0  0  0  0  0  0  0  0  0  0
    2.0792   -1.7542    0.0000 C   0  0  0  0  0  0  0  0  0  0  0  0
    1.8292   -0.9667    0.0000 N   0  0  0  0  0  0  0  0  0  0  0  0
    1.0042   -0.9667    0.0000 N   0  0  0  0  0  0  0  0  0  0  0  0
    4.9750   -3.4750    0.0000 C   0  0  0  0  0  0  0  0  0  0  0  0
    4.5417   -2.2042    0.0000 N   0  0  0  0  0  0  0  0  0  0  0  0
    4.3000   -2.9917    0.0000 N   0  0  0  0  0  0  0  0  0  0  0  0
    5.3750   -2.2000    0.0000 N   0  0  0  0  0  0  0  0  0  0  0  0
    0.7500   -1.7542    0.0000 C   0  0  0  0  0  0  0  0  0  0  0  0
    5.6375   -2.9792    0.0000 N   0  0  0  0  0  0  0  0  0  0  0  0
    4.9792   -4.3042    0.0000 C   0  0  0  0  0  0  0  0  0  0  0  0
    4.2750   -4.7167    0.0000 C   0  0  0  0  0  0  0  0  0  0  0  0
    1.4167   -3.0667    0.0000 C   0  0  0  0  0  0  0  0  0  0  0  0
    3.5542   -4.3042    0.0000 C   0  0  0  0  0  0  0  0  0  0  0  0
    2.9042   -1.7542    0.0000 O   0  0  0  0  0  0  0  0  0  0  0  0
    3.5542   -3.4792    0.0000 C   0  0  0  0  0  0  0  0  0  0  0  0
    2.8500   -4.7167    0.0000 C   0  0  0  0  0  0  0  0  0  0  0  0
    2.1292   -3.4792    0.0000 C   0  0  0  0  0  0  0  0  0  0  0  0
    2.1292   -4.3042    0.0000 C   0  0  0  0  0  0  0  0  0  0  0  0
    2.8417   -3.0667    0.0000 C   0  0  0  0  0  0  0  0  0  0  0  0
   -0.0750   -1.7542    0.0000 C   0  0  0  0  0  0  0  0  0  0  0  0
    3.3167   -1.0375    0.0000 C   0  0  0  0  0  0  0  0  0  0  0  0
    5.6917   -4.7125    0.0000 C   0  0  0  0  0  0  0  0  0  0  0  0
    4.2667   -5.5417    0.0000 C   0  0  0  0  0  0  0  0  0  0  0  0
    3.3125    0.3958    0.0000 C   0  0  0  0  0  0  0  0  0  0  0  0
    2.9000   -0.3250    0.0000 C   0  0  0  0  0  0  0  0  0  0  0  0
    4.1375    0.3958    0.0000 C   0  0  0  0  0  0  0  0  0  0  0  0
    2.8917    1.1000    0.0000 C   0  0  0  0  0  0  0  0  0  0  0  0
   -0.4875   -1.0417    0.0000 C   0  0  0  0  0  0  0  0  0  0  0  0
   -1.3125   -1.0417    0.0000 C   0  0  0  0  0  0  0  0  0  0  0  0
    5.7000   -5.5417    0.0000 C   0  0  0  0  0  0  0  0  0  0  0  0
    4.9792   -5.9542    0.0000 C   0  0  0  0  0  0  0  0  0  0  0  0
   -1.7250   -0.3250    0.0000 C   0  0  0  0  0  0  0  0  0  0  0  0
    3.3042    1.8208    0.0000 C   0  0  0  0  0  0  0  0  0  0  0  0
    4.5500    1.1083    0.0000 C   0  0  0  0  0  0  0  0  0  0  0  0
    4.1292    1.8208    0.0000 C   0  0  0  0  0  0  0  0  0  0  0  0
  2  1  1  0
  3  2  2  0
  4  9  2  0
  5 11  1  0
  6  7  1  0
  7  5  1  0
  8 10  1  0
  9  1  1  0
 10  5  2  0
 11 12  1  0
 12 14  1  0
 13  1  1  0
 14 16  2  0
 15  2  1  0
 16 20  1  0
 17 19  2  0
 18 13  1  0
 19 18  1  0
 20 18  2  0
 21  9  1  0
 22 15  1  0
 23 11  2  0
 24 12  2  0
 25 26  1  0
 26 22  1  0
 27 25  2  0
 28 25  1  0
 29 21  1  0
 30 29  1  0
 31 32  2  0
 32 24  1  0
 33 30  1  0
 34 28  2  0
 35 27  1  0
 36 34  1  0
  3  4  1  0
 17 14  1  0
 35 36  2  0
 23 31  1  0
  8  6  2  0
M  END
>  <From>  (1) 
www.bindingDB.org

>  <BindingDB Reactant_set_id>  (1) 
50035041

>  <Ligand InChI>  (1) 
InChI=1S/C28H29N7O/c1-2-3-13-26-29-32-28(36-19-18-21-9-5-4-6-10-21)35(26)20-22-14-16-23(17-15-22)24-11-7-8-12-25(24)27-30-33-34-31-27/h4-12,14-17H,2-3,13,18-20H2,1H3,(H,30,31,33,34)

>  <Ligand InChI Key>  (1) 
RHEGURHYKNRWGP-UHFFFAOYSA-N

>  <BindingDB MonomerID>  (1) 
50047795

>  <BindingDB Ligand Name>  (1) 
5-[4'-(3-Butyl-5-phenethyloxy-[1,2,4]triazol-4-ylmethyl)-biphenyl-2-yl]-1H-tetrazole::CHEMBL154315

>  <Target Name>  (1) 
Type-1 angiotensin II receptor

>  <Target Source Organism According to Curator or DataSource>  (1) 
Oryctolagus cuniculus

>  <Ki (nM)>  (1) 


>  <IC50 (nM)>  (1) 
 63

>  <Kd (nM)>  (1) 


>  <EC50 (nM)>  (1) 


>  <kon (M-1-s-1)>  (1) 


>  <koff (s-1)>  (1) 


>  <pH>  (1) 


>  <Temp C>  (1) 


>  <Curation/DataSource>  (1) 
ChEMBL

>  <Article DOI>  (1) 
10.1021/jm00057a009

>  <BindingDB Entry DOI>  (1) 
10.7270/Q2P55MKH

>  <PMID>  (1) 
8496939

>  <PubChem AID>  (1) 


>  <Patent Number>  (1) 


>  <Authors>  (1) 
Ashton, WT; Cantone, CL; Chang, LL; Hutchins, SM; Strelitz, RA; MacCoss, M; Chang, RS; Lotti, VJ; Faust, KA; Chen, TB

>  <Institution>  (1) 
Merck Research Laboratories

>  <Link to Ligand in BindingDB>  (1) 
http://www.bindingdb.org/bind/chemsearch/marvin/MolStructure.jsp?monomerid=50047795

>  <Link to Ligand-Target Pair in BindingDB>  (1) 
http://www.bindingdb.org/jsp/dbsearch/PrimarySearch_ki.jsp?energyterm=kJ/mole&tag=r21&monomerid=50047795&enzyme=Type-1+angiotensin+II+receptor&column=ki&startPg=0&Increment=50&submit=Search

>  <Ligand HET ID in PDB>  (1) 


>  <PDB ID(s) for Ligand-Target Complex>  (1) 


>  <PubChem CID of Ligand>  (1) 
10005344

>  <PubChem SID of Ligand>  (1) 
103978359

>  <ChEBI ID of Ligand>  (1) 


>  <ChEMBL ID of Ligand>  (1) 
CHEMBL154315

>  <DrugBank ID of Ligand>  (1) 


>  <IUPHAR_GRAC ID of Ligand>  (1) 


>  <KEGG ID of Ligand>  (1) 


>  <ZINC ID of Ligand>  (1) 
ZINC13825674

>  <Number of Protein Chains in Target (bigger than 1 implies a multichain complex)>  (1) 
1

>  <BindingDB Target Chain Sequence>  (1) 
MMLNSSTEDGIKRIQDDCPKAGRHNYIFVMIPTLYSIIFVVGIFGNSLAVIVIYFYMKLKTVASVFLLNLALADLCFLLTLPLWAVYTAMEYRWPFGNYLCKIASASVSFNLYASVFLLTCLSIDRYLAIVHPMKSRLRRTMLVAKVTCIIIWLLAGLASLPAIIHRNVFFIENTNITVCAFHYESQNSTLPIGLGLTKNILGFLFPFLIILTSYTLIWKALKKAYEIQKNKPRNDDIFKIIMAIVLFFFFSWVPHQIFTFLDVLIQLGVIHDCRIADIVDTAMPITICIAYFNNCLNPLFYGFLGKKFKKYFLQLLKYIPPKAKSHSNLSTKMSTLSYRPSDNVSSSSKKPVPCFEVE

>  <PDB ID(s) of Target Chain>  (1) 
6DO1,6OS0,6OS1,6OS2

>  <UniProt (SwissProt) Recommended Name of Target Chain>  (1) 
Type-1 angiotensin II receptor

>  <UniProt (SwissProt) Entry Name of Target Chain>  (1) 
AGTR1_RABIT

>  <UniProt (SwissProt) Primary ID of Target Chain>  (1) 
P34976

>  <UniProt (SwissProt) Secondary ID(s) of Target Chain>  (1) 


>  <UniProt (SwissProt) Alternative ID(s) of Target Chain>  (1) 


>  <UniProt (TrEMBL) Submitted Name of Target Chain>  (1) 


>  <UniProt (TrEMBL) Entry Name of Target Chain>  (1) 


>  <UniProt (TrEMBL) Primary ID of Target Chain>  (1) 


>  <UniProt (TrEMBL) Secondary ID(s) of Target Chain>  (1) 


>  <UniProt (TrEMBL) Alternative ID(s) of Target Chain>  (1) 


$$$$
