
     RDKit          2D

 33 36  0  0  0  0  0  0  0  0999 V2000
    3.4271   -2.8649    0.0000 N   0  0  0  0  0  0  0  0  0  0  0  0
    4.1141   -2.4110    0.0000 C   0  0  0  0  0  0  0  0  0  0  0  0
    3.8976   -1.6157    0.0000 N   0  0  0  0  0  0  0  0  0  0  0  0
    3.0731   -1.5782    0.0000 N   0  0  0  0  0  0  0  0  0  0  0  0
    2.7775   -2.3527    0.0000 C   0  0  0  0  0  0  0  0  0  0  0  0
    6.9249   -4.2515    0.0000 C   0  0  0  0  0  0  0  0  0  0  0  0
    6.2753   -3.7394    0.0000 N   0  0  0  0  0  0  0  0  0  0  0  0
    6.5626   -2.9648    0.0000 N   0  0  0  0  0  0  0  0  0  0  0  0
    7.6119   -3.7893    0.0000 N   0  0  0  0  0  0  0  0  0  0  0  0
    7.3871   -2.9981    0.0000 N   0  0  0  0  0  0  0  0  0  0  0  0
    6.8957   -5.0760    0.0000 C   0  0  0  0  0  0  0  0  0  0  0  0
    6.1628   -5.4508    0.0000 C   0  0  0  0  0  0  0  0  0  0  0  0
    3.3896   -3.6894    0.0000 C   0  0  0  0  0  0  0  0  0  0  0  0
    4.4014   -0.9661    0.0000 C   0  0  0  0  0  0  0  0  0  0  0  0
    4.8886   -2.6983    0.0000 O   0  0  0  0  0  0  0  0  0  0  0  0
    5.4758   -5.0136    0.0000 C   0  0  0  0  0  0  0  0  0  0  0  0
    5.2217   -1.0868    0.0000 C   0  0  0  0  0  0  0  0  0  0  0  0
    5.5091   -4.1891    0.0000 C   0  0  0  0  0  0  0  0  0  0  0  0
    4.7387   -5.3966    0.0000 C   0  0  0  0  0  0  0  0  0  0  0  0
    4.0891   -4.1266    0.0000 C   0  0  0  0  0  0  0  0  0  0  0  0
    1.9905   -2.5734    0.0000 C   0  0  0  0  0  0  0  0  0  0  0  0
    4.8137   -3.7477    0.0000 C   0  0  0  0  0  0  0  0  0  0  0  0
    4.0475   -4.9511    0.0000 C   0  0  0  0  0  0  0  0  0  0  0  0
    7.5869   -5.5132    0.0000 C   0  0  0  0  0  0  0  0  0  0  0  0
    6.1254   -6.2836    0.0000 C   0  0  0  0  0  0  0  0  0  0  0  0
    5.7339   -0.4414    0.0000 C   0  0  0  0  0  0  0  0  0  0  0  0
    5.5257   -1.8530    0.0000 C   0  0  0  0  0  0  0  0  0  0  0  0
    6.0129   -1.2992    0.0000 C   0  0  0  0  0  0  0  0  0  0  0  0
    1.3991   -1.9905    0.0000 C   0  0  0  0  0  0  0  0  0  0  0  0
    0.6038   -2.2153    0.0000 C   0  0  0  0  0  0  0  0  0  0  0  0
    6.8249   -6.7250    0.0000 C   0  0  0  0  0  0  0  0  0  0  0  0
    7.5578   -6.3377    0.0000 C   0  0  0  0  0  0  0  0  0  0  0  0
    0.0167   -1.6365    0.0000 C   0  0  0  0  0  0  0  0  0  0  0  0
  2  1  1  0
  3  2  1  0
  4  5  2  0
  5  1  1  0
  6 11  1  0
  7  6  1  0
  8  7  1  0
  9  6  2  0
 10  9  1  0
 11 12  1  0
 12 16  1  0
 13  1  1  0
 14  3  1  0
 15  2  2  0
 16 19  2  0
 17 14  1  0
 18 22  2  0
 19 23  1  0
 20 13  1  0
 21  5  1  0
 22 20  1  0
 23 20  2  0
 24 11  2  0
 25 12  2  0
 26 17  1  0
 27 17  1  0
 28 17  1  0
 29 21  1  0
 30 29  1  0
 31 25  1  0
 32 31  2  0
 33 30  1  0
  4  3  1  0
 18 16  1  0
 32 24  1  0
  8 10  2  0
M  END
>  <From>  (1) 
www.bindingDB.org

>  <BindingDB Reactant_set_id>  (1) 
50620722

>  <Ligand InChI>  (1) 
InChI=1S/C25H31N7O/c1-5-6-11-22-28-32(17-25(2,3)4)24(33)31(22)16-18-12-14-19(15-13-18)20-9-7-8-10-21(20)23-26-29-30-27-23/h7-10,12-15H,5-6,11,16-17H2,1-4H3,(H,26,27,29,30)

>  <Ligand InChI Key>  (1) 
XWUOBJXGWLLBPU-UHFFFAOYSA-N

>  <BindingDB MonomerID>  (1) 
50044503

>  <BindingDB Ligand Name>  (1) 
5-Butyl-2-(2,2-dimethyl-propyl)-4-[2'-(2H-tetrazol-5-yl)-biphenyl-4-ylmethyl]-2,4-dihydro-[1,2,4]triazol-3-one::CHEMBL19202

>  <Target Name>  (1) 
Type-1 angiotensin II receptor

>  <Target Source Organism According to Curator or DataSource>  (1) 
Oryctolagus cuniculus

>  <Ki (nM)>  (1) 


>  <IC50 (nM)>  (1) 
 1.2

>  <Kd (nM)>  (1) 


>  <EC50 (nM)>  (1) 


>  <kon (M-1-s-1)>  (1) 


>  <koff (s-1)>  (1) 


>  <pH>  (1) 


>  <Temp C>  (1) 


>  <Curation/DataSource>  (1) 
ChEMBL

>  <Article DOI>  (1) 
10.1016/j.bmc.2010.10.043

>  <BindingDB Entry DOI>  (1) 
10.7270/Q2H70G3T

>  <PMID>  (1) 
21071232

>  <PubChem AID>  (1) 


>  <Patent Number>  (1) 


>  <Authors>  (1) 
Naik, P; Murumkar, P; Giridhar, R; Yadav, MR

>  <Institution>  (1) 
The M. S. University of Baroda

>  <Link to Ligand in BindingDB>  (1) 
http://www.bindingdb.org/bind/chemsearch/marvin/MolStructure.jsp?monomerid=50044503

>  <Link to Ligand-Target Pair in BindingDB>  (1) 
http://www.bindingdb.org/jsp/dbsearch/PrimarySearch_ki.jsp?energyterm=kJ/mole&tag=r21&monomerid=50044503&enzyme=Type-1+angiotensin+II+receptor&column=ki&startPg=0&Increment=50&submit=Search

>  <Ligand HET ID in PDB>  (1) 


>  <PDB ID(s) for Ligand-Target Complex>  (1) 


>  <PubChem CID of Ligand>  (1) 
14956779

>  <PubChem SID of Ligand>  (1) 
103975741

>  <ChEBI ID of Ligand>  (1) 


>  <ChEMBL ID of Ligand>  (1) 
CHEMBL19202

>  <DrugBank ID of Ligand>  (1) 


>  <IUPHAR_GRAC ID of Ligand>  (1) 


>  <KEGG ID of Ligand>  (1) 


>  <ZINC ID of Ligand>  (1) 
ZINC13832674

>  <Number of Protein Chains in Target (bigger than 1 implies a multichain complex)>  (1) 
1

>  <BindingDB Target Chain Sequence>  (1) 
MMLNSSTEDGIKRIQDDCPKAGRHNYIFVMIPTLYSIIFVVGIFGNSLAVIVIYFYMKLKTVASVFLLNLALADLCFLLTLPLWAVYTAMEYRWPFGNYLCKIASASVSFNLYASVFLLTCLSIDRYLAIVHPMKSRLRRTMLVAKVTCIIIWLLAGLASLPAIIHRNVFFIENTNITVCAFHYESQNSTLPIGLGLTKNILGFLFPFLIILTSYTLIWKALKKAYEIQKNKPRNDDIFKIIMAIVLFFFFSWVPHQIFTFLDVLIQLGVIHDCRIADIVDTAMPITICIAYFNNCLNPLFYGFLGKKFKKYFLQLLKYIPPKAKSHSNLSTKMSTLSYRPSDNVSSSSKKPVPCFEVE

>  <PDB ID(s) of Target Chain>  (1) 
6DO1,6OS0,6OS1,6OS2

>  <UniProt (SwissProt) Recommended Name of Target Chain>  (1) 
Type-1 angiotensin II receptor

>  <UniProt (SwissProt) Entry Name of Target Chain>  (1) 
AGTR1_RABIT

>  <UniProt (SwissProt) Primary ID of Target Chain>  (1) 
P34976

>  <UniProt (SwissProt) Secondary ID(s) of Target Chain>  (1) 


>  <UniProt (SwissProt) Alternative ID(s) of Target Chain>  (1) 


>  <UniProt (TrEMBL) Submitted Name of Target Chain>  (1) 


>  <UniProt (TrEMBL) Entry Name of Target Chain>  (1) 


>  <UniProt (TrEMBL) Primary ID of Target Chain>  (1) 


>  <UniProt (TrEMBL) Secondary ID(s) of Target Chain>  (1) 


>  <UniProt (TrEMBL) Alternative ID(s) of Target Chain>  (1) 


$$$$
