
     RDKit          2D

 46 52  0  0  1  0  0  0  0  0999 V2000
    3.7042    0.4333    0.0000 N   0  0  0  0  0  0  0  0  0  0  0  0
    2.9917    0.0125    0.0000 C   0  0  0  0  0  0  0  0  0  0  0  0
    2.2750    0.4250    0.0000 C   0  0  0  0  0  0  0  0  0  0  0  0
   -0.6250    0.3583    0.0000 C   0  0  0  0  0  0  0  0  0  0  0  0
    0.1292    0.0125    0.0000 C   0  0  0  0  0  0  0  0  0  0  0  0
    3.7000    1.2583    0.0000 C   0  0  0  0  0  0  0  0  0  0  0  0
    2.9792    1.6708    0.0000 N   0  0  0  0  0  0  0  0  0  0  0  0
    0.0292   -0.8042    0.0000 O   0  0  0  0  0  0  0  0  0  0  0  0
   -0.7833   -0.9750    0.0000 N   0  0  0  0  0  0  0  0  0  0  0  0
    5.8625   -3.2542    0.0000 C   0  0  0  0  0  0  0  0  0  0  0  0
    7.0917   -2.5417    0.0000 N   0  0  0  0  0  0  0  0  0  0  0  0
    6.2667   -2.5417    0.0000 N   0  0  0  0  0  0  0  0  0  0  0  0
    7.5042   -3.2542    0.0000 N   0  0  0  0  0  0  0  0  0  0  0  0
    2.2750    1.2500    0.0000 C   0  0  0  0  0  0  0  0  0  0  0  0
   -1.1833   -0.2542    0.0000 C   0  0  0  0  0  0  0  0  0  0  0  0
    6.5750   -3.6667    0.0000 N   0  0  0  0  0  0  0  0  0  0  0  0
    1.5542    0.0083    0.0000 C   0  0  0  0  0  0  0  0  0  0  0  0
    0.8417    0.4208    0.0000 C   0  0  0  0  0  0  0  0  0  0  0  0
    5.1500   -3.6792    0.0000 C   0  0  0  0  0  0  0  0  0  0  0  0
   -0.7958    1.1625    0.0000 C   0  0  0  0  0  0  0  0  0  0  0  0
    4.4375   -3.2750    0.0000 C   0  0  0  0  0  0  0  0  0  0  0  0
    4.4167    0.0208    0.0000 C   0  0  0  0  0  0  0  0  0  0  0  0
    2.9917   -0.8125    0.0000 O   0  0  0  0  0  0  0  0  0  0  0  0
    4.4292   -2.4500    0.0000 C   0  0  0  0  0  0  0  0  0  0  0  0
    1.5542    1.6625    0.0000 C   0  0  0  0  0  0  0  0  0  0  0  0
    0.8417    1.2500    0.0000 C   0  0  0  0  0  0  0  0  0  0  0  0
   -0.1750    1.7083    0.0000 O   0  0  0  0  0  0  0  0  0  0  0  0
    3.7167   -2.0417    0.0000 C   0  0  0  0  0  0  0  0  0  0  0  0
    5.1417   -2.0292    0.0000 C   0  0  0  0  0  0  0  0  0  0  0  0
    4.4250   -0.8042    0.0000 C   0  0  0  0  0  0  0  0  0  0  0  0
   -1.1958   -1.6792    0.0000 C   0  0  0  0  0  0  0  0  0  0  0  0
   -1.5750    1.4208    0.0000 O   0  0  0  0  0  0  0  0  0  0  0  0
    4.4125    1.6750    0.0000 C   0  0  0  0  0  0  0  0  0  0  0  0
    5.1417   -1.2042    0.0000 C   0  0  0  0  0  0  0  0  0  0  0  0
    3.7125   -1.2167    0.0000 C   0  0  0  0  0  0  0  0  0  0  0  0
   -1.9833   -0.4667    0.0000 C   0  0  0  0  0  0  0  0  0  0  0  0
    5.1542   -4.5000    0.0000 C   0  0  0  0  0  0  0  0  0  0  0  0
    3.7250   -3.6875    0.0000 C   0  0  0  0  0  0  0  0  0  0  0  0
   -1.9875   -1.2917    0.0000 C   0  0  0  0  0  0  0  0  0  0  0  0
   -1.7458    2.2333    0.0000 C   0  0  0  0  0  0  0  0  0  0  0  0
    5.1292    1.2708    0.0000 C   0  0  0  0  0  0  0  0  0  0  0  0
    5.8417    1.6833    0.0000 C   0  0  0  0  0  0  0  0  0  0  0  0
    3.7292   -4.5042    0.0000 C   0  0  0  0  0  0  0  0  0  0  0  0
    4.4417   -4.9167    0.0000 C   0  0  0  0  0  0  0  0  0  0  0  0
   -2.5250    2.4875    0.0000 C   0  0  0  0  0  0  0  0  0  0  0  0
    6.5542    1.2750    0.0000 C   0  0  0  0  0  0  0  0  0  0  0  0
  2  1  1  0
  3  2  1  0
  5  4  1  0
  5 18  1  1
  6  1  1  0
  7  6  2  0
  5  8  1  0
  9  8  1  0
 10 19  1  0
 11 12  1  0
 12 10  1  0
 13 16  1  0
 14  7  1  0
 15  4  1  0
 16 10  2  0
 17  3  2  0
 18 17  1  0
 19 21  1  0
  4 20  1  0
 21 24  1  0
 22  1  1  0
 23  2  2  0
 24 28  2  0
 25 14  2  0
 26 25  1  0
 27 20  2  0
 28 35  1  0
 29 34  2  0
 30 22  1  0
 31  9  1  0
 32 20  1  0
 33  6  1  0
 34 30  1  0
 35 30  2  0
 36 15  1  0
 37 19  2  0
 38 21  2  0
 39 31  1  0
 40 32  1  0
 41 33  1  0
 42 41  1  0
 43 38  1  0
 44 43  2  0
 45 40  1  0
 46 42  1  0
 14  3  1  0
 29 24  1  0
 26 18  2  0
  9 15  1  0
 37 44  1  0
 39 36  1  0
 11 13  2  0
M  END
>  <From>  (1) 
www.bindingDB.org

>  <BindingDB Reactant_set_id>  (1) 
50468371

>  <Ligand InChI>  (1) 
InChI=1S/C35H37N7O4/c1-3-5-12-30-36-28-18-17-24(32-31(35(44)45-4-2)29-11-8-19-42(29)46-32)20-27(28)34(43)41(30)21-22-13-15-23(16-14-22)25-9-6-7-10-26(25)33-37-39-40-38-33/h6-7,9-10,13-18,20,29,31-32H,3-5,8,11-12,19,21H2,1-2H3,(H,37,38,39,40)/t29?,31?,32-/m1/s1

>  <Ligand InChI Key>  (1) 
FYIRUXBRHOVWLN-GFYZXZBBSA-N

>  <BindingDB MonomerID>  (1) 
50282814

>  <BindingDB Ligand Name>  (1) 
(S)-2-{2-Butyl-4-oxo-3-[2'-(1H-tetrazol-5-yl)-biphenyl-4-ylmethyl]-3,4-dihydro-quinazolin-6-yl}-hexahydro-pyrrolo[1,2-b]isoxazole-3-carboxylic acid ethyl ester::CHEMBL44605

>  <Target Name>  (1) 
Type-1 angiotensin II receptor

>  <Target Source Organism According to Curator or DataSource>  (1) 
Bos taurus

>  <Ki (nM)>  (1) 


>  <IC50 (nM)>  (1) 
 69

>  <Kd (nM)>  (1) 


>  <EC50 (nM)>  (1) 


>  <kon (M-1-s-1)>  (1) 


>  <koff (s-1)>  (1) 


>  <pH>  (1) 


>  <Temp C>  (1) 


>  <Curation/DataSource>  (1) 
ChEMBL

>  <Article DOI>  (1) 
10.1016/S0960-894X(00)80365-0

>  <BindingDB Entry DOI>  (1) 
10.7270/Q2JS9QB3

>  <PMID>  (1) 


>  <PubChem AID>  (1) 


>  <Patent Number>  (1) 


>  <Authors>  (1) 
Levin, JI; Chan, PS; Coupet, J; Bailey, TK; Vice, G; Thibault, L; F., L; Venkatesan, AM; Cobuzzi, A

>  <Institution>  (1) 
TBA

>  <Link to Ligand in BindingDB>  (1) 
http://www.bindingdb.org/bind/chemsearch/marvin/MolStructure.jsp?monomerid=50282814

>  <Link to Ligand-Target Pair in BindingDB>  (1) 
http://www.bindingdb.org/jsp/dbsearch/PrimarySearch_ki.jsp?energyterm=kJ/mole&tag=r21&monomerid=50282814&enzyme=Type-1+angiotensin+II+receptor&column=ki&startPg=0&Increment=50&submit=Search

>  <Ligand HET ID in PDB>  (1) 


>  <PDB ID(s) for Ligand-Target Complex>  (1) 


>  <PubChem CID of Ligand>  (1) 
44291956

>  <PubChem SID of Ligand>  (1) 
104124488

>  <ChEBI ID of Ligand>  (1) 


>  <ChEMBL ID of Ligand>  (1) 
CHEMBL44605

>  <DrugBank ID of Ligand>  (1) 


>  <IUPHAR_GRAC ID of Ligand>  (1) 


>  <KEGG ID of Ligand>  (1) 


>  <ZINC ID of Ligand>  (1) 
ZINC36222572

>  <Number of Protein Chains in Target (bigger than 1 implies a multichain complex)>  (1) 
1

>  <BindingDB Target Chain Sequence>  (1) 
MILNSSTEDGIKRIQDDCPKAGRHNYIFIMIPTLYSIIFVVGIFGNSLVVIVIYFYMKLKTVASVFLLNLALADLCFLLTLPLWAVYTAMEYRWPFGNYLCKIASASVSFNLYASVFLLTCLSIDRYLAIVHPMKSRLRRTMLVAKVTCIIIWLLAGLASLPTIIHRNVFFIENTNITVCAFHYESQNSTLPVGLGLTKNILGFLFPFLIILTSYTLIWKTLKKAYEIQKNKPRKDDIFKIILAIVLFFFFSWVPHQIFTFMDVLIQLGLIRDCKIEDIVDTAMPITICLAYFNNCLNPLFYGFLGKKFKKYFLQLLKYIPPKAKSHSNLSTKMSTLSYRPSENGNSSTKKPAPCIEVE

>  <PDB ID(s) of Target Chain>  (1) 


>  <UniProt (SwissProt) Recommended Name of Target Chain>  (1) 
Type-1 angiotensin II receptor

>  <UniProt (SwissProt) Entry Name of Target Chain>  (1) 
AGTR1_BOVIN

>  <UniProt (SwissProt) Primary ID of Target Chain>  (1) 
P25104

>  <UniProt (SwissProt) Secondary ID(s) of Target Chain>  (1) 


>  <UniProt (SwissProt) Alternative ID(s) of Target Chain>  (1) 


>  <UniProt (TrEMBL) Submitted Name of Target Chain>  (1) 


>  <UniProt (TrEMBL) Entry Name of Target Chain>  (1) 


>  <UniProt (TrEMBL) Primary ID of Target Chain>  (1) 


>  <UniProt (TrEMBL) Secondary ID(s) of Target Chain>  (1) 


>  <UniProt (TrEMBL) Alternative ID(s) of Target Chain>  (1) 


$$$$
