
     RDKit          2D

 40 44  0  0  0  0  0  0  0  0999 V2000
   17.2999  -17.0661    0.0000 C   0  0  0  0  0  0  0  0  0  0  0  0
   17.2988  -17.8856    0.0000 C   0  0  0  0  0  0  0  0  0  0  0  0
   18.0068  -18.2946    0.0000 C   0  0  0  0  0  0  0  0  0  0  0  0
   18.7165  -17.8851    0.0000 C   0  0  0  0  0  0  0  0  0  0  0  0
   18.7137  -17.0625    0.0000 C   0  0  0  0  0  0  0  0  0  0  0  0
   18.0050  -16.6572    0.0000 C   0  0  0  0  0  0  0  0  0  0  0  0
   19.4248  -18.2926    0.0000 N   0  0  0  0  0  0  0  0  0  0  0  0
   20.1319  -17.8829    0.0000 C   0  0  0  0  0  0  0  0  0  0  0  0
   20.8403  -18.2904    0.0000 C   0  0  0  0  0  0  0  0  0  0  0  0
   20.1306  -17.0657    0.0000 O   0  0  0  0  0  0  0  0  0  0  0  0
   20.8369  -19.1060    0.0000 C   0  0  0  0  0  0  0  0  0  0  0  0
   21.5444  -19.5134    0.0000 C   0  0  0  0  0  0  0  0  0  0  0  0
   22.2525  -19.1037    0.0000 C   0  0  0  0  0  0  0  0  0  0  0  0
   22.2485  -18.2823    0.0000 C   0  0  0  0  0  0  0  0  0  0  0  0
   21.5405  -17.8785    0.0000 C   0  0  0  0  0  0  0  0  0  0  0  0
   16.5921  -16.6576    0.0000 C   0  0  0  0  0  0  0  0  0  0  0  0
   16.5919  -15.8404    0.0000 N   0  0  0  0  0  0  0  0  0  0  0  0
   17.2587  -15.3612    0.0000 C   0  0  0  0  0  0  0  0  0  0  0  0
   17.0060  -14.5840    0.0000 N   0  0  0  0  0  0  0  0  0  0  0  0
   16.1888  -14.5842    0.0000 N   0  0  0  0  0  0  0  0  0  0  0  0
   15.9366  -15.3615    0.0000 C   0  0  0  0  0  0  0  0  0  0  0  0
   15.1591  -15.6131    0.0000 C   0  0  0  0  0  0  0  0  0  0  0  0
   14.9882  -16.4122    0.0000 C   0  0  0  0  0  0  0  0  0  0  0  0
   15.5948  -16.9597    0.0000 C   0  0  0  0  0  0  0  0  0  0  0  0
   21.5298  -17.0604    0.0000 C   0  0  0  0  0  0  0  0  0  0  0  0
   18.0353  -15.6156    0.0000 S   0  0  0  0  0  0  0  0  0  0  0  0
   18.6439  -15.0703    0.0000 C   0  0  0  0  0  0  0  0  0  0  0  0
   22.1818  -16.5701    0.0000 N   0  0  0  0  0  0  0  0  0  0  0  0
   21.9189  -15.7952    0.0000 N   0  0  0  0  0  0  0  0  0  0  0  0
   21.1006  -15.8059    0.0000 N   0  0  0  0  0  0  0  0  0  0  0  0
   20.8581  -16.5873    0.0000 N   0  0  0  0  0  0  0  0  0  0  0  0
   18.4760  -14.2705    0.0000 C   0  0  0  0  0  0  0  0  0  0  0  0
   19.0869  -13.7302    0.0000 C   0  0  0  0  0  0  0  0  0  0  0  0
   18.9195  -12.9311    0.0000 C   0  0  0  0  0  0  0  0  0  0  0  0
   18.1422  -12.6760    0.0000 C   0  0  0  0  0  0  0  0  0  0  0  0
   17.5322  -13.2261    0.0000 C   0  0  0  0  0  0  0  0  0  0  0  0
   17.7028  -14.0231    0.0000 C   0  0  0  0  0  0  0  0  0  0  0  0
   15.4240  -17.7589    0.0000 C   0  0  0  0  0  0  0  0  0  0  0  0
   19.5283  -12.3861    0.0000 O   0  0  0  0  0  0  0  0  0  0  0  0
   20.3048  -12.6409    0.0000 C   0  0  0  0  0  0  0  0  0  0  0  0
  1  2  2  0
  2  3  1  0
  3  4  2  0
  4  5  1  0
  5  6  2  0
  6  1  1  0
  4  7  1  0
  7  8  1  0
  8  9  1  0
  8 10  2  0
  9 11  2  0
 11 12  1  0
 12 13  2  0
 13 14  1  0
 14 15  2  0
 15  9  1  0
  1 16  1  0
 16 17  1  0
 17 18  1  0
 18 19  2  0
 19 20  1  0
 20 21  2  0
 21 17  1  0
 21 22  1  0
 22 23  1  0
 23 24  1  0
 15 25  1  0
 18 26  1  0
 26 27  1  0
 25 28  2  0
 28 29  1  0
 29 30  2  0
 30 31  1  0
 31 25  1  0
 27 32  1  0
 32 33  2  0
 33 34  1  0
 34 35  2  0
 35 36  1  0
 36 37  2  0
 37 32  1  0
 24 38  1  0
 34 39  1  0
 39 40  1  0
M  END
>  <From>  (1) 
www.bindingDB.org

>  <BindingDB Reactant_set_id>  (1) 
51183547

>  <Ligand InChI>  (1) 
InChI=1S/C29H30N8O2S/c1-3-4-12-26-31-34-29(40-19-21-8-7-9-23(17-21)39-2)37(26)18-20-13-15-22(16-14-20)30-28(38)25-11-6-5-10-24(25)27-32-35-36-33-27/h5-11,13-17H,3-4,12,18-19H2,1-2H3,(H,30,38)(H,32,33,35,36)

>  <Ligand InChI Key>  (1) 
IQBXYQXXNQKXNG-UHFFFAOYSA-N

>  <BindingDB MonomerID>  (1) 
50486754

>  <BindingDB Ligand Name>  (1) 
CHEMBL2237596

>  <Target Name>  (1) 
Type-1 angiotensin II receptor

>  <Target Source Organism According to Curator or DataSource>  (1) 
Oryctolagus cuniculus

>  <Ki (nM)>  (1) 


>  <IC50 (nM)>  (1) 
 94

>  <Kd (nM)>  (1) 


>  <EC50 (nM)>  (1) 


>  <kon (M-1-s-1)>  (1) 


>  <koff (s-1)>  (1) 


>  <pH>  (1) 


>  <Temp C>  (1) 


>  <Curation/DataSource>  (1) 
ChEMBL

>  <Article DOI>  (1) 
10.1007/s00044-011-9756-4

>  <BindingDB Entry DOI>  (1) 
10.7270/Q2833VXQ

>  <PMID>  (1) 


>  <PubChem AID>  (1) 


>  <Patent Number>  (1) 


>  <Authors>  (1) 
n/a

>  <Institution>  (1) 
n/a

>  <Link to Ligand in BindingDB>  (1) 
http://www.bindingdb.org/bind/chemsearch/marvin/MolStructure.jsp?monomerid=50486754

>  <Link to Ligand-Target Pair in BindingDB>  (1) 
http://www.bindingdb.org/jsp/dbsearch/PrimarySearch_ki.jsp?energyterm=kJ/mole&tag=r21&monomerid=50486754&enzyme=Type-1+angiotensin+II+receptor&column=ki&startPg=0&Increment=50&submit=Search

>  <Ligand HET ID in PDB>  (1) 


>  <PDB ID(s) for Ligand-Target Complex>  (1) 


>  <PubChem CID of Ligand>  (1) 
76322691

>  <PubChem SID of Ligand>  (1) 
433954019

>  <ChEBI ID of Ligand>  (1) 


>  <ChEMBL ID of Ligand>  (1) 


>  <DrugBank ID of Ligand>  (1) 


>  <IUPHAR_GRAC ID of Ligand>  (1) 


>  <KEGG ID of Ligand>  (1) 


>  <ZINC ID of Ligand>  (1) 


>  <Number of Protein Chains in Target (bigger than 1 implies a multichain complex)>  (1) 
1

>  <BindingDB Target Chain Sequence>  (1) 
MMLNSSTEDGIKRIQDDCPKAGRHNYIFVMIPTLYSIIFVVGIFGNSLAVIVIYFYMKLKTVASVFLLNLALADLCFLLTLPLWAVYTAMEYRWPFGNYLCKIASASVSFNLYASVFLLTCLSIDRYLAIVHPMKSRLRRTMLVAKVTCIIIWLLAGLASLPAIIHRNVFFIENTNITVCAFHYESQNSTLPIGLGLTKNILGFLFPFLIILTSYTLIWKALKKAYEIQKNKPRNDDIFKIIMAIVLFFFFSWVPHQIFTFLDVLIQLGVIHDCRIADIVDTAMPITICIAYFNNCLNPLFYGFLGKKFKKYFLQLLKYIPPKAKSHSNLSTKMSTLSYRPSDNVSSSSKKPVPCFEVE

>  <PDB ID(s) of Target Chain>  (1) 
6DO1,6OS0,6OS1,6OS2

>  <UniProt (SwissProt) Recommended Name of Target Chain>  (1) 
Type-1 angiotensin II receptor

>  <UniProt (SwissProt) Entry Name of Target Chain>  (1) 
AGTR1_RABIT

>  <UniProt (SwissProt) Primary ID of Target Chain>  (1) 
P34976

>  <UniProt (SwissProt) Secondary ID(s) of Target Chain>  (1) 


>  <UniProt (SwissProt) Alternative ID(s) of Target Chain>  (1) 


>  <UniProt (TrEMBL) Submitted Name of Target Chain>  (1) 


>  <UniProt (TrEMBL) Entry Name of Target Chain>  (1) 


>  <UniProt (TrEMBL) Primary ID of Target Chain>  (1) 


>  <UniProt (TrEMBL) Secondary ID(s) of Target Chain>  (1) 


>  <UniProt (TrEMBL) Alternative ID(s) of Target Chain>  (1) 


$$$$
