
     RDKit          2D

 32 35  0  0  0  0  0  0  0  0999 V2000
    6.2402   -1.2664    0.0000 N   0  0  0  0  0  0  0  0  0  0  0  0
    6.2360    0.0833    0.0000 N   0  0  0  0  0  0  0  0  0  0  0  0
    5.4487   -1.0165    0.0000 C   0  0  0  0  0  0  0  0  0  0  0  0
    6.7233   -0.5916    0.0000 C   0  0  0  0  0  0  0  0  0  0  0  0
    5.4487   -0.1792    0.0000 C   0  0  0  0  0  0  0  0  0  0  0  0
    4.5739   -5.2904    0.0000 C   0  0  0  0  0  0  0  0  0  0  0  0
    5.3862   -5.4529    0.0000 C   0  0  0  0  0  0  0  0  0  0  0  0
    4.0240   -5.9027    0.0000 C   0  0  0  0  0  0  0  0  0  0  0  0
    4.7280   -1.4288    0.0000 N   0  0  0  0  0  0  0  0  0  0  0  0
    6.4984   -2.0412    0.0000 C   0  0  0  0  0  0  0  0  0  0  0  0
    4.3114   -4.5031    0.0000 O   0  0  0  0  0  0  0  0  0  0  0  0
    4.7280    0.2332    0.0000 C   0  0  0  0  0  0  0  0  0  0  0  0
    3.2242   -5.7403    0.0000 C   0  0  0  0  0  0  0  0  0  0  0  0
    5.9277   -4.8405    0.0000 O   0  0  0  0  0  0  0  0  0  0  0  0
    4.8613   -3.8907    0.0000 C   0  0  0  0  0  0  0  0  0  0  0  0
    5.9527   -2.6660    0.0000 C   0  0  0  0  0  0  0  0  0  0  0  0
    2.6743   -6.3526    0.0000 C   0  0  0  0  0  0  0  0  0  0  0  0
    5.6403   -6.2402    0.0000 O   0  0  0  0  0  0  0  0  0  0  0  0
    7.5481   -0.5791    0.0000 C   0  0  0  0  0  0  0  0  0  0  0  0
    4.0157   -1.0165    0.0000 C   0  0  0  0  0  0  0  0  0  0  0  0
    1.8662   -6.1860    0.0000 Cl  0  0  0  0  0  0  0  0  0  0  0  0
    4.5989   -3.1159    0.0000 C   0  0  0  0  0  0  0  0  0  0  0  0
    5.6736   -4.0532    0.0000 C   0  0  0  0  0  0  0  0  0  0  0  0
    5.1487   -2.4911    0.0000 C   0  0  0  0  0  0  0  0  0  0  0  0
    6.2152   -3.4409    0.0000 C   0  0  0  0  0  0  0  0  0  0  0  0
    4.2906   -6.6901    0.0000 C   0  0  0  0  0  0  0  0  0  0  0  0
    3.7366   -7.3024    0.0000 C   0  0  0  0  0  0  0  0  0  0  0  0
    4.0157   -0.1917    0.0000 C   0  0  0  0  0  0  0  0  0  0  0  0
    4.7238    1.0580    0.0000 C   0  0  0  0  0  0  0  0  0  0  0  0
    2.9285   -7.1399    0.0000 C   0  0  0  0  0  0  0  0  0  0  0  0
    7.9647   -1.2914    0.0000 C   0  0  0  0  0  0  0  0  0  0  0  0
    8.7895   -1.2914    0.0000 C   0  0  0  0  0  0  0  0  0  0  0  0
  2  4  2  0
  3  1  1  0
  4  1  1  0
  5  3  2  0
  6 11  1  0
  7  6  1  0
  8  6  1  0
  9  3  1  0
 10  1  1  0
 11 15  1  0
 12  5  1  0
 13  8  2  0
 14  7  2  0
 15 23  2  0
 16 10  1  0
 17 13  1  0
 18  7  1  0
 19  4  1  0
 20  9  2  0
 21 17  1  0
 22 24  2  0
 23 25  1  0
 24 16  1  0
 25 16  2  0
 26  8  1  0
 27 26  2  0
 28 20  1  0
 29 12  1  0
 30 27  1  0
 31 19  1  0
 32 31  1  0
  2  5  1  0
 15 22  1  0
 12 28  2  0
 17 30  2  0
M  END
>  <From>  (1) 
www.bindingDB.org

>  <BindingDB Reactant_set_id>  (1) 
50004241

>  <Ligand InChI>  (1) 
InChI=1S/C25H24ClN3O3/c1-3-5-21-28-22-16(2)12-13-27-24(22)29(21)15-17-8-10-20(11-9-17)32-23(25(30)31)18-6-4-7-19(26)14-18/h4,6-14,23H,3,5,15H2,1-2H3,(H,30,31)

>  <Ligand InChI Key>  (1) 
OICIRVSVHZRBNP-UHFFFAOYSA-N

>  <BindingDB MonomerID>  (1) 
50285355

>  <BindingDB Ligand Name>  (1) 
(3-Chloro-phenyl)-[4-(7-methyl-2-propyl-imidazo[4,5-b]pyridin-3-ylmethyl)-phenoxy]-acetic acid::CHEMBL41440

>  <Target Name>  (1) 
Type-1 angiotensin II receptor

>  <Target Source Organism According to Curator or DataSource>  (1) 
Oryctolagus cuniculus

>  <Ki (nM)>  (1) 


>  <IC50 (nM)>  (1) 
 60

>  <Kd (nM)>  (1) 


>  <EC50 (nM)>  (1) 


>  <kon (M-1-s-1)>  (1) 


>  <koff (s-1)>  (1) 


>  <pH>  (1) 


>  <Temp C>  (1) 


>  <Curation/DataSource>  (1) 
ChEMBL

>  <Article DOI>  (1) 
10.1016/0960-894X(94)00476-V

>  <BindingDB Entry DOI>  (1) 
10.7270/Q26H4HC9

>  <PMID>  (1) 


>  <PubChem AID>  (1) 


>  <Patent Number>  (1) 


>  <Authors>  (1) 
Fitch, KJ; Walsh, TF; Patchett, AA; Chang, RS; Siegl, PK; Faust, KA; Chen, TB; Lotti, VJ; Kivlighn, SD; Zingaro, GJ; Greenlee, WJ

>  <Institution>  (1) 
TBA

>  <Link to Ligand in BindingDB>  (1) 
http://www.bindingdb.org/bind/chemsearch/marvin/MolStructure.jsp?monomerid=50285355

>  <Link to Ligand-Target Pair in BindingDB>  (1) 
http://www.bindingdb.org/jsp/dbsearch/PrimarySearch_ki.jsp?energyterm=kJ/mole&tag=r21&monomerid=50285355&enzyme=Type-1+angiotensin+II+receptor&column=ki&startPg=0&Increment=50&submit=Search

>  <Ligand HET ID in PDB>  (1) 


>  <PDB ID(s) for Ligand-Target Complex>  (1) 


>  <PubChem CID of Ligand>  (1) 
15287885

>  <PubChem SID of Ligand>  (1) 
104126926

>  <ChEBI ID of Ligand>  (1) 


>  <ChEMBL ID of Ligand>  (1) 
CHEMBL41440

>  <DrugBank ID of Ligand>  (1) 


>  <IUPHAR_GRAC ID of Ligand>  (1) 


>  <KEGG ID of Ligand>  (1) 


>  <ZINC ID of Ligand>  (1) 
ZINC29344366

>  <Number of Protein Chains in Target (bigger than 1 implies a multichain complex)>  (1) 
1

>  <BindingDB Target Chain Sequence>  (1) 
MMLNSSTEDGIKRIQDDCPKAGRHNYIFVMIPTLYSIIFVVGIFGNSLAVIVIYFYMKLKTVASVFLLNLALADLCFLLTLPLWAVYTAMEYRWPFGNYLCKIASASVSFNLYASVFLLTCLSIDRYLAIVHPMKSRLRRTMLVAKVTCIIIWLLAGLASLPAIIHRNVFFIENTNITVCAFHYESQNSTLPIGLGLTKNILGFLFPFLIILTSYTLIWKALKKAYEIQKNKPRNDDIFKIIMAIVLFFFFSWVPHQIFTFLDVLIQLGVIHDCRIADIVDTAMPITICIAYFNNCLNPLFYGFLGKKFKKYFLQLLKYIPPKAKSHSNLSTKMSTLSYRPSDNVSSSSKKPVPCFEVE

>  <PDB ID(s) of Target Chain>  (1) 
6DO1,6OS0,6OS1,6OS2

>  <UniProt (SwissProt) Recommended Name of Target Chain>  (1) 
Type-1 angiotensin II receptor

>  <UniProt (SwissProt) Entry Name of Target Chain>  (1) 
AGTR1_RABIT

>  <UniProt (SwissProt) Primary ID of Target Chain>  (1) 
P34976

>  <UniProt (SwissProt) Secondary ID(s) of Target Chain>  (1) 


>  <UniProt (SwissProt) Alternative ID(s) of Target Chain>  (1) 


>  <UniProt (TrEMBL) Submitted Name of Target Chain>  (1) 


>  <UniProt (TrEMBL) Entry Name of Target Chain>  (1) 


>  <UniProt (TrEMBL) Primary ID of Target Chain>  (1) 


>  <UniProt (TrEMBL) Secondary ID(s) of Target Chain>  (1) 


>  <UniProt (TrEMBL) Alternative ID(s) of Target Chain>  (1) 


$$$$
