
     RDKit          2D

 33 36  0  0  0  0  0  0  0  0999 V2000
    4.5105   -7.4849    0.0000 N   0  0  0  0  0  0  0  0  0  0  0  0
    4.2182   -6.1782    0.0000 N   0  0  0  0  0  0  0  0  0  0  0  0
    4.8371   -6.7227    0.0000 C   0  0  0  0  0  0  0  0  0  0  0  0
    3.5075   -6.6023    0.0000 N   0  0  0  0  0  0  0  0  0  0  0  0
    3.6852   -7.4104    0.0000 C   0  0  0  0  0  0  0  0  0  0  0  0
    8.2071   -6.7112    0.0000 C   0  0  0  0  0  0  0  0  0  0  0  0
    7.3818   -6.6425    0.0000 N   0  0  0  0  0  0  0  0  0  0  0  0
    7.1927   -5.8458    0.0000 N   0  0  0  0  0  0  0  0  0  0  0  0
    8.5166   -5.9547    0.0000 N   0  0  0  0  0  0  0  0  0  0  0  0
    4.2870   -5.3530    0.0000 C   0  0  0  0  0  0  0  0  0  0  0  0
    7.8976   -5.4160    0.0000 N   0  0  0  0  0  0  0  0  0  0  0  0
    3.6164   -4.8830    0.0000 C   0  0  0  0  0  0  0  0  0  0  0  0
    8.6369   -7.4162    0.0000 C   0  0  0  0  0  0  0  0  0  0  0  0
    8.2415   -8.1383    0.0000 C   0  0  0  0  0  0  0  0  0  0  0  0
    4.9403   -8.1899    0.0000 C   0  0  0  0  0  0  0  0  0  0  0  0
    5.6452   -6.5393    0.0000 O   0  0  0  0  0  0  0  0  0  0  0  0
    7.4162   -8.1555    0.0000 C   0  0  0  0  0  0  0  0  0  0  0  0
    2.9974   -4.4531    0.0000 F   0  0  0  0  0  0  0  0  0  0  0  0
    3.5476   -4.0233    0.0000 F   0  0  0  0  0  0  0  0  0  0  0  0
    2.7739   -5.1122    0.0000 F   0  0  0  0  0  0  0  0  0  0  0  0
    6.9978   -7.4506    0.0000 C   0  0  0  0  0  0  0  0  0  0  0  0
    7.0207   -8.8776    0.0000 C   0  0  0  0  0  0  0  0  0  0  0  0
    5.7656   -8.1841    0.0000 C   0  0  0  0  0  0  0  0  0  0  0  0
    3.1464   -8.0294    0.0000 C   0  0  0  0  0  0  0  0  0  0  0  0
    6.1610   -7.4620    0.0000 C   0  0  0  0  0  0  0  0  0  0  0  0
    6.1897   -8.8890    0.0000 C   0  0  0  0  0  0  0  0  0  0  0  0
    9.4622   -7.3990    0.0000 C   0  0  0  0  0  0  0  0  0  0  0  0
    8.6655   -8.8432    0.0000 C   0  0  0  0  0  0  0  0  0  0  0  0
    2.3383   -7.8632    0.0000 C   0  0  0  0  0  0  0  0  0  0  0  0
    1.7939   -8.4822    0.0000 C   0  0  0  0  0  0  0  0  0  0  0  0
    9.4908   -8.8260    0.0000 C   0  0  0  0  0  0  0  0  0  0  0  0
    9.8920   -8.1039    0.0000 C   0  0  0  0  0  0  0  0  0  0  0  0
    0.9858   -8.3274    0.0000 C   0  0  0  0  0  0  0  0  0  0  0  0
  2  3  1  0
  3  1  1  0
  4  5  2  0
  5  1  1  0
  6 13  1  0
  7  6  1  0
  8  7  1  0
  9  6  2  0
 10  2  1  0
 11  9  1  0
 12 10  1  0
 13 14  1  0
 14 17  1  0
 15  1  1  0
 16  3  2  0
 17 22  2  0
 18 12  1  0
 19 12  1  0
 20 12  1  0
 21 25  2  0
 22 26  1  0
 23 15  1  0
 24  5  1  0
 25 23  1  0
 26 23  2  0
 27 13  2  0
 28 14  2  0
 29 24  1  0
 30 29  1  0
 31 28  1  0
 32 31  2  0
 33 30  1  0
  4  2  1  0
 17 21  1  0
 27 32  1  0
  8 11  2  0
M  END
>  <From>  (1) 
www.bindingDB.org

>  <BindingDB Reactant_set_id>  (1) 
50060462

>  <Ligand InChI>  (1) 
InChI=1S/C22H22F3N7O/c1-2-3-8-19-28-32(14-22(23,24)25)21(33)31(19)13-15-9-11-16(12-10-15)17-6-4-5-7-18(17)20-26-29-30-27-20/h4-7,9-12H,2-3,8,13-14H2,1H3,(H,26,27,29,30)

>  <Ligand InChI Key>  (1) 
JISRJBOVRKWXKT-UHFFFAOYSA-N

>  <BindingDB MonomerID>  (1) 
50044508

>  <BindingDB Ligand Name>  (1) 
5-Butyl-4-[2'-(2H-tetrazol-5-yl)-biphenyl-4-ylmethyl]-2-(2,2,2-trifluoro-ethyl)-2,4-dihydro-[1,2,4]triazol-3-one::CHEMBL87780

>  <Target Name>  (1) 
Type-1 angiotensin II receptor

>  <Target Source Organism According to Curator or DataSource>  (1) 
Oryctolagus cuniculus

>  <Ki (nM)>  (1) 


>  <IC50 (nM)>  (1) 
 76

>  <Kd (nM)>  (1) 


>  <EC50 (nM)>  (1) 


>  <kon (M-1-s-1)>  (1) 


>  <koff (s-1)>  (1) 


>  <pH>  (1) 


>  <Temp C>  (1) 


>  <Curation/DataSource>  (1) 
ChEMBL

>  <Article DOI>  (1) 
10.1021/jm00069a015

>  <BindingDB Entry DOI>  (1) 
10.7270/Q2KP817C

>  <PMID>  (1) 
8355255

>  <PubChem AID>  (1) 


>  <Patent Number>  (1) 


>  <Authors>  (1) 
Chang, LL; Ashton, WT; Flanagan, KL; Strelitz, RA; MacCoss, M; Greenlee, WJ; Chang, RS; Lotti, VJ; Faust, KA; Chen, TB

>  <Institution>  (1) 
Merck Research Laboratories

>  <Link to Ligand in BindingDB>  (1) 
http://www.bindingdb.org/bind/chemsearch/marvin/MolStructure.jsp?monomerid=50044508

>  <Link to Ligand-Target Pair in BindingDB>  (1) 
http://www.bindingdb.org/jsp/dbsearch/PrimarySearch_ki.jsp?energyterm=kJ/mole&tag=r21&monomerid=50044508&enzyme=Type-1+angiotensin+II+receptor&column=ki&startPg=0&Increment=50&submit=Search

>  <Ligand HET ID in PDB>  (1) 


>  <PDB ID(s) for Ligand-Target Complex>  (1) 


>  <PubChem CID of Ligand>  (1) 
14956782

>  <PubChem SID of Ligand>  (1) 
103975746

>  <ChEBI ID of Ligand>  (1) 


>  <ChEMBL ID of Ligand>  (1) 
CHEMBL87780

>  <DrugBank ID of Ligand>  (1) 


>  <IUPHAR_GRAC ID of Ligand>  (1) 


>  <KEGG ID of Ligand>  (1) 


>  <ZINC ID of Ligand>  (1) 
ZINC13832676

>  <Number of Protein Chains in Target (bigger than 1 implies a multichain complex)>  (1) 
1

>  <BindingDB Target Chain Sequence>  (1) 
MMLNSSTEDGIKRIQDDCPKAGRHNYIFVMIPTLYSIIFVVGIFGNSLAVIVIYFYMKLKTVASVFLLNLALADLCFLLTLPLWAVYTAMEYRWPFGNYLCKIASASVSFNLYASVFLLTCLSIDRYLAIVHPMKSRLRRTMLVAKVTCIIIWLLAGLASLPAIIHRNVFFIENTNITVCAFHYESQNSTLPIGLGLTKNILGFLFPFLIILTSYTLIWKALKKAYEIQKNKPRNDDIFKIIMAIVLFFFFSWVPHQIFTFLDVLIQLGVIHDCRIADIVDTAMPITICIAYFNNCLNPLFYGFLGKKFKKYFLQLLKYIPPKAKSHSNLSTKMSTLSYRPSDNVSSSSKKPVPCFEVE

>  <PDB ID(s) of Target Chain>  (1) 
6DO1,6OS0,6OS1,6OS2

>  <UniProt (SwissProt) Recommended Name of Target Chain>  (1) 
Type-1 angiotensin II receptor

>  <UniProt (SwissProt) Entry Name of Target Chain>  (1) 
AGTR1_RABIT

>  <UniProt (SwissProt) Primary ID of Target Chain>  (1) 
P34976

>  <UniProt (SwissProt) Secondary ID(s) of Target Chain>  (1) 


>  <UniProt (SwissProt) Alternative ID(s) of Target Chain>  (1) 


>  <UniProt (TrEMBL) Submitted Name of Target Chain>  (1) 


>  <UniProt (TrEMBL) Entry Name of Target Chain>  (1) 


>  <UniProt (TrEMBL) Primary ID of Target Chain>  (1) 


>  <UniProt (TrEMBL) Secondary ID(s) of Target Chain>  (1) 


>  <UniProt (TrEMBL) Alternative ID(s) of Target Chain>  (1) 


$$$$
