
     RDKit          2D

 46 51  0  0  0  0  0  0  0  0999 V2000
    3.7710   -4.8356    0.0000 N   0  0  0  0  0  0  0  0  0  0  0  0
    4.4378   -4.3559    0.0000 C   0  0  0  0  0  0  0  0  0  0  0  0
    3.3615   -3.5721    0.0000 N   0  0  0  0  0  0  0  0  0  0  0  0
    4.1882   -3.5721    0.0000 C   0  0  0  0  0  0  0  0  0  0  0  0
    3.1041   -4.3520    0.0000 C   0  0  0  0  0  0  0  0  0  0  0  0
    5.9002   -8.5558    0.0000 C   0  0  0  0  0  0  0  0  0  0  0  0
    4.5899   -8.8327    0.0000 N   0  0  0  0  0  0  0  0  0  0  0  0
    5.1475   -8.2166    0.0000 N   0  0  0  0  0  0  0  0  0  0  0  0
    4.9994   -9.5502    0.0000 N   0  0  0  0  0  0  0  0  0  0  0  0
    5.8143   -9.3825    0.0000 N   0  0  0  0  0  0  0  0  0  0  0  0
    5.2216   -4.6133    0.0000 C   0  0  0  0  0  0  0  0  0  0  0  0
    8.1932   -4.8433    0.0000 C   0  0  0  0  0  0  0  0  0  0  0  0
    6.6138   -8.1464    0.0000 C   0  0  0  0  0  0  0  0  0  0  0  0
    8.0254   -4.0283    0.0000 C   0  0  0  0  0  0  0  0  0  0  0  0
    6.6216   -7.3157    0.0000 C   0  0  0  0  0  0  0  0  0  0  0  0
    3.7710   -5.6623    0.0000 C   0  0  0  0  0  0  0  0  0  0  0  0
    5.8417   -4.0634    0.0000 O   0  0  0  0  0  0  0  0  0  0  0  0
    5.9079   -6.9063    0.0000 C   0  0  0  0  0  0  0  0  0  0  0  0
    7.2416   -3.7710    0.0000 C   0  0  0  0  0  0  0  0  0  0  0  0
    7.5731   -5.3932    0.0000 O   0  0  0  0  0  0  0  0  0  0  0  0
    5.3620   -5.1943    0.0000 O   0  0  0  0  0  0  0  0  0  0  0  0
    8.9770   -5.1046    0.0000 C   0  0  0  0  0  0  0  0  0  0  0  0
    6.6255   -4.3208    0.0000 C   0  0  0  0  0  0  0  0  0  0  0  0
    5.1865   -7.3157    0.0000 C   0  0  0  0  0  0  0  0  0  0  0  0
    5.9079   -6.0757    0.0000 C   0  0  0  0  0  0  0  0  0  0  0  0
    4.4846   -6.0757    0.0000 C   0  0  0  0  0  0  0  0  0  0  0  0
    4.6718   -2.9053    0.0000 C   0  0  0  0  0  0  0  0  0  0  0  0
    2.3203   -4.6016    0.0000 C   0  0  0  0  0  0  0  0  0  0  0  0
    4.4729   -6.9063    0.0000 C   0  0  0  0  0  0  0  0  0  0  0  0
    5.1943   -5.6662    0.0000 C   0  0  0  0  0  0  0  0  0  0  0  0
    7.3352   -8.5636    0.0000 C   0  0  0  0  0  0  0  0  0  0  0  0
    8.6377   -3.4785    0.0000 C   0  0  0  0  0  0  0  0  0  0  0  0
    7.3352   -6.9063    0.0000 C   0  0  0  0  0  0  0  0  0  0  0  0
    7.0701   -2.9638    0.0000 C   0  0  0  0  0  0  0  0  0  0  0  0
    9.1368   -5.9119    0.0000 C   0  0  0  0  0  0  0  0  0  0  0  0
    9.5853   -4.5548    0.0000 C   0  0  0  0  0  0  0  0  0  0  0  0
    1.7080   -4.0400    0.0000 C   0  0  0  0  0  0  0  0  0  0  0  0
    5.4985   -2.9949    0.0000 C   0  0  0  0  0  0  0  0  0  0  0  0
    8.0528   -8.1464    0.0000 C   0  0  0  0  0  0  0  0  0  0  0  0
    8.0488   -7.3157    0.0000 C   0  0  0  0  0  0  0  0  0  0  0  0
    8.4739   -2.6713    0.0000 C   0  0  0  0  0  0  0  0  0  0  0  0
    0.9242   -4.2974    0.0000 C   0  0  0  0  0  0  0  0  0  0  0  0
    9.9207   -6.1770    0.0000 C   0  0  0  0  0  0  0  0  0  0  0  0
   10.3691   -4.8122    0.0000 C   0  0  0  0  0  0  0  0  0  0  0  0
    7.6784   -2.4139    0.0000 C   0  0  0  0  0  0  0  0  0  0  0  0
   10.5407   -5.6272    0.0000 C   0  0  0  0  0  0  0  0  0  0  0  0
  2  1  1  0
  3  5  2  0
  4  2  2  0
  5  1  1  0
  6 13  1  0
  7  8  1  0
  8  6  2  0
  9 10  1  0
 10  6  1  0
 11  2  1  0
 12 14  1  0
 13 15  1  0
 14 19  1  0
 15 18  1  0
 16  1  1  0
 17 11  1  0
 18 25  2  0
 19 23  1  0
 20 12  2  0
 21 11  2  0
 22 12  1  0
 23 17  1  0
 24 29  2  0
 25 30  1  0
 26 16  1  0
 27  4  1  0
 28  5  1  0
 29 26  1  0
 30 26  2  0
 31 13  2  0
 32 14  2  0
 33 15  2  0
 34 19  2  0
 35 22  2  0
 36 22  1  0
 37 28  1  0
 38 27  1  0
 39 40  2  0
 40 33  1  0
 41 45  2  0
 42 37  1  0
 43 35  1  0
 44 36  2  0
 45 34  1  0
 46 44  1  0
  3  4  1  0
 18 24  1  0
 41 32  1  0
 39 31  1  0
  9  7  2  0
 46 43  2  0
M  END
>  <From>  (1) 
www.bindingDB.org

>  <BindingDB Reactant_set_id>  (1) 
50469094

>  <Ligand InChI>  (1) 
InChI=1S/C37H34N6O3/c1-3-12-33-38-32(4-2)34(37(45)46-24-28-15-8-9-17-30(28)35(44)27-13-6-5-7-14-27)43(33)23-25-19-21-26(22-20-25)29-16-10-11-18-31(29)36-39-41-42-40-36/h5-11,13-22H,3-4,12,23-24H2,1-2H3,(H,39,40,41,42)

>  <Ligand InChI Key>  (1) 
IYWDGVNLLWLWKC-UHFFFAOYSA-N

>  <BindingDB MonomerID>  (1) 
50283210

>  <BindingDB Ligand Name>  (1) 
5-Ethyl-2-propyl-3-[2'-(1H-tetrazol-5-yl)-biphenyl-4-ylmethyl]-3H-imidazole-4-carboxylic acid 2-benzoyl-benzyl ester::CHEMBL70353

>  <Target Name>  (1) 
Type-1 angiotensin II receptor

>  <Target Source Organism According to Curator or DataSource>  (1) 
Homo sapiens

>  <Ki (nM)>  (1) 


>  <IC50 (nM)>  (1) 
 2

>  <Kd (nM)>  (1) 


>  <EC50 (nM)>  (1) 


>  <kon (M-1-s-1)>  (1) 


>  <koff (s-1)>  (1) 


>  <pH>  (1) 


>  <Temp C>  (1) 


>  <Curation/DataSource>  (1) 
ChEMBL

>  <Article DOI>  (1) 
10.1016/S0960-894X(00)80077-3

>  <BindingDB Entry DOI>  (1) 
10.7270/Q2DZ088W

>  <PMID>  (1) 


>  <PubChem AID>  (1) 


>  <Patent Number>  (1) 


>  <Authors>  (1) 
Santella, JB; Duncia, JV; Ensinger, CL; VanAtten, MK; Carini, DJ; Wexler, RR; Chiu, AT; Wong, PC; Timmermans, PB

>  <Institution>  (1) 
TBA

>  <Link to Ligand in BindingDB>  (1) 
http://www.bindingdb.org/bind/chemsearch/marvin/MolStructure.jsp?monomerid=50283210

>  <Link to Ligand-Target Pair in BindingDB>  (1) 
http://www.bindingdb.org/jsp/dbsearch/PrimarySearch_ki.jsp?energyterm=kJ/mole&tag=r21&monomerid=50283210&enzyme=Type-1+angiotensin+II+receptor&column=ki&startPg=0&Increment=50&submit=Search

>  <Ligand HET ID in PDB>  (1) 


>  <PDB ID(s) for Ligand-Target Complex>  (1) 


>  <PubChem CID of Ligand>  (1) 
44311583

>  <PubChem SID of Ligand>  (1) 
104124884

>  <ChEBI ID of Ligand>  (1) 


>  <ChEMBL ID of Ligand>  (1) 
CHEMBL70353

>  <DrugBank ID of Ligand>  (1) 


>  <IUPHAR_GRAC ID of Ligand>  (1) 


>  <KEGG ID of Ligand>  (1) 


>  <ZINC ID of Ligand>  (1) 
ZINC26292465

>  <Number of Protein Chains in Target (bigger than 1 implies a multichain complex)>  (1) 
1

>  <BindingDB Target Chain Sequence>  (1) 
MILNSSTEDGIKRIQDDCPKAGRHNYIFVMIPTLYSIIFVVGIFGNSLVVIVIYFYMKLKTVASVFLLNLALADLCFLLTLPLWAVYTAMEYRWPFGNYLCKIASASVSFNLYASVFLLTCLSIDRYLAIVHPMKSRLRRTMLVAKVTCIIIWLLAGLASLPAIIHRNVFFIENTNITVCAFHYESQNSTLPIGLGLTKNILGFLFPFLIILTSYTLIWKALKKAYEIQKNKPRNDDIFKIIMAIVLFFFFSWIPHQIFTFLDVLIQLGIIRDCRIADIVDTAMPITICIAYFNNCLNPLFYGFLGKKFKRYFLQLLKYIPPKAKSHSNLSTKMSTLSYRPSDNVSSSTKKPAPCFEVE

>  <PDB ID(s) of Target Chain>  (1) 
6DO1,6OS0,6OS1,6OS2

>  <UniProt (SwissProt) Recommended Name of Target Chain>  (1) 
Type-1 angiotensin II receptor

>  <UniProt (SwissProt) Entry Name of Target Chain>  (1) 
AGTR1_HUMAN

>  <UniProt (SwissProt) Primary ID of Target Chain>  (1) 
P30556

>  <UniProt (SwissProt) Secondary ID(s) of Target Chain>  (1) 
Q13725 Q8TBK4

>  <UniProt (SwissProt) Alternative ID(s) of Target Chain>  (1) 


>  <UniProt (TrEMBL) Submitted Name of Target Chain>  (1) 


>  <UniProt (TrEMBL) Entry Name of Target Chain>  (1) 


>  <UniProt (TrEMBL) Primary ID of Target Chain>  (1) 


>  <UniProt (TrEMBL) Secondary ID(s) of Target Chain>  (1) 


>  <UniProt (TrEMBL) Alternative ID(s) of Target Chain>  (1) 


$$$$
