
     RDKit          2D

 31 35  0  0  0  0  0  0  0  0999 V2000
    3.0790   -2.8901    0.0000 N   0  0  0  0  0  0  0  0  0  0  0  0
    3.0732   -1.5510    0.0000 N   0  0  0  0  0  0  0  0  0  0  0  0
    2.5925   -2.2206    0.0000 C   0  0  0  0  0  0  0  0  0  0  0  0
    6.0836   -5.1507    0.0000 C   0  0  0  0  0  0  0  0  0  0  0  0
    5.8947   -3.8287    0.0000 N   0  0  0  0  0  0  0  0  0  0  0  0
    5.5112   -4.5555    0.0000 N   0  0  0  0  0  0  0  0  0  0  0  0
    6.7016   -3.9660    0.0000 N   0  0  0  0  0  0  0  0  0  0  0  0
    3.8630   -2.6326    0.0000 C   0  0  0  0  0  0  0  0  0  0  0  0
    6.8218   -4.7787    0.0000 N   0  0  0  0  0  0  0  0  0  0  0  0
    3.8516   -1.8085    0.0000 C   0  0  0  0  0  0  0  0  0  0  0  0
    5.8432   -5.9290    0.0000 C   0  0  0  0  0  0  0  0  0  0  0  0
    5.0363   -6.1007    0.0000 C   0  0  0  0  0  0  0  0  0  0  0  0
    2.8215   -3.6741    0.0000 C   0  0  0  0  0  0  0  0  0  0  0  0
    4.4868   -5.4998    0.0000 C   0  0  0  0  0  0  0  0  0  0  0  0
    3.6799   -5.6715    0.0000 C   0  0  0  0  0  0  0  0  0  0  0  0
    4.7272   -4.7100    0.0000 C   0  0  0  0  0  0  0  0  0  0  0  0
    3.3823   -4.2808    0.0000 C   0  0  0  0  0  0  0  0  0  0  0  0
    1.7684   -2.2206    0.0000 C   0  0  0  0  0  0  0  0  0  0  0  0
    3.1247   -5.0706    0.0000 C   0  0  0  0  0  0  0  0  0  0  0  0
    4.1778   -4.1091    0.0000 C   0  0  0  0  0  0  0  0  0  0  0  0
    4.5727   -3.0447    0.0000 C   0  0  0  0  0  0  0  0  0  0  0  0
    6.3926   -6.5413    0.0000 C   0  0  0  0  0  0  0  0  0  0  0  0
    4.5727   -1.3907    0.0000 C   0  0  0  0  0  0  0  0  0  0  0  0
    4.7787   -6.8905    0.0000 C   0  0  0  0  0  0  0  0  0  0  0  0
    1.3563   -1.5166    0.0000 C   0  0  0  0  0  0  0  0  0  0  0  0
    0.5322   -1.5166    0.0000 C   0  0  0  0  0  0  0  0  0  0  0  0
    5.2880   -2.6326    0.0000 C   0  0  0  0  0  0  0  0  0  0  0  0
    5.3395   -7.5028    0.0000 C   0  0  0  0  0  0  0  0  0  0  0  0
    6.1465   -7.3311    0.0000 C   0  0  0  0  0  0  0  0  0  0  0  0
    5.2880   -1.8027    0.0000 C   0  0  0  0  0  0  0  0  0  0  0  0
    0.1088   -0.8069    0.0000 C   0  0  0  0  0  0  0  0  0  0  0  0
  2  3  2  0
  3  1  1  0
  4 11  1  0
  5  6  1  0
  6  4  1  0
  7  9  1  0
  8  1  1  0
  9  4  2  0
 10  8  2  0
 11 12  1  0
 12 14  1  0
 13  1  1  0
 14 16  2  0
 15 19  2  0
 16 20  1  0
 17 13  1  0
 18  3  1  0
 19 17  1  0
 20 17  2  0
 21  8  1  0
 22 11  2  0
 23 10  1  0
 24 12  2  0
 25 18  1  0
 26 25  1  0
 27 21  2  0
 28 24  1  0
 29 28  2  0
 30 27  1  0
 31 26  1  0
 10  2  1  0
 15 14  1  0
 30 23  2  0
 22 29  1  0
  7  5  2  0
M  END
>  <From>  (1) 
www.bindingDB.org

>  <BindingDB Reactant_set_id>  (1) 
51185880

>  <Ligand InChI>  (1) 
InChI=1S/C25H24N6/c1-2-3-12-24-26-22-10-6-7-11-23(22)31(24)17-18-13-15-19(16-14-18)20-8-4-5-9-21(20)25-27-29-30-28-25/h4-11,13-16H,2-3,12,17H2,1H3,(H,27,28,29,30)

>  <Ligand InChI Key>  (1) 
IFVAHIKNRDQTNV-UHFFFAOYSA-N

>  <BindingDB MonomerID>  (1) 
50005340

>  <BindingDB Ligand Name>  (1) 
2-Butyl-1-[2'-(1H-tetrazol-5-yl)-biphenyl-4-ylmethyl]-1H-benzoimidazole::2-Butyl-1-[2'-(2H-tetrazol-5-yl)-biphenyl-4-ylmethyl]-1H-benzoimidazole::CHEMBL7641

>  <Target Name>  (1) 
Type-1 angiotensin II receptor

>  <Target Source Organism According to Curator or DataSource>  (1) 
Bos taurus

>  <Ki (nM)>  (1) 


>  <IC50 (nM)>  (1) 
 900

>  <Kd (nM)>  (1) 


>  <EC50 (nM)>  (1) 


>  <kon (M-1-s-1)>  (1) 


>  <koff (s-1)>  (1) 


>  <pH>  (1) 


>  <Temp C>  (1) 


>  <Curation/DataSource>  (1) 
ChEMBL

>  <Article DOI>  (1) 
10.1007/s00044-009-9182-z

>  <BindingDB Entry DOI>  (1) 
10.7270/Q2RN3BR4

>  <PMID>  (1) 


>  <PubChem AID>  (1) 


>  <Patent Number>  (1) 


>  <Authors>  (1) 
n/a

>  <Institution>  (1) 
n/a

>  <Link to Ligand in BindingDB>  (1) 
http://www.bindingdb.org/bind/chemsearch/marvin/MolStructure.jsp?monomerid=50005340

>  <Link to Ligand-Target Pair in BindingDB>  (1) 
http://www.bindingdb.org/jsp/dbsearch/PrimarySearch_ki.jsp?energyterm=kJ/mole&tag=r21&monomerid=50005340&enzyme=Type-1+angiotensin+II+receptor&column=ki&startPg=0&Increment=50&submit=Search

>  <Ligand HET ID in PDB>  (1) 


>  <PDB ID(s) for Ligand-Target Complex>  (1) 


>  <PubChem CID of Ligand>  (1) 
4286584

>  <PubChem SID of Ligand>  (1) 
103918831

>  <ChEBI ID of Ligand>  (1) 


>  <ChEMBL ID of Ligand>  (1) 
CHEMBL7641

>  <DrugBank ID of Ligand>  (1) 


>  <IUPHAR_GRAC ID of Ligand>  (1) 


>  <KEGG ID of Ligand>  (1) 


>  <ZINC ID of Ligand>  (1) 
ZINC13451137

>  <Number of Protein Chains in Target (bigger than 1 implies a multichain complex)>  (1) 
1

>  <BindingDB Target Chain Sequence>  (1) 
MILNSSTEDGIKRIQDDCPKAGRHNYIFIMIPTLYSIIFVVGIFGNSLVVIVIYFYMKLKTVASVFLLNLALADLCFLLTLPLWAVYTAMEYRWPFGNYLCKIASASVSFNLYASVFLLTCLSIDRYLAIVHPMKSRLRRTMLVAKVTCIIIWLLAGLASLPTIIHRNVFFIENTNITVCAFHYESQNSTLPVGLGLTKNILGFLFPFLIILTSYTLIWKTLKKAYEIQKNKPRKDDIFKIILAIVLFFFFSWVPHQIFTFMDVLIQLGLIRDCKIEDIVDTAMPITICLAYFNNCLNPLFYGFLGKKFKKYFLQLLKYIPPKAKSHSNLSTKMSTLSYRPSENGNSSTKKPAPCIEVE

>  <PDB ID(s) of Target Chain>  (1) 


>  <UniProt (SwissProt) Recommended Name of Target Chain>  (1) 
Type-1 angiotensin II receptor

>  <UniProt (SwissProt) Entry Name of Target Chain>  (1) 
AGTR1_BOVIN

>  <UniProt (SwissProt) Primary ID of Target Chain>  (1) 
P25104

>  <UniProt (SwissProt) Secondary ID(s) of Target Chain>  (1) 


>  <UniProt (SwissProt) Alternative ID(s) of Target Chain>  (1) 


>  <UniProt (TrEMBL) Submitted Name of Target Chain>  (1) 


>  <UniProt (TrEMBL) Entry Name of Target Chain>  (1) 


>  <UniProt (TrEMBL) Primary ID of Target Chain>  (1) 


>  <UniProt (TrEMBL) Secondary ID(s) of Target Chain>  (1) 


>  <UniProt (TrEMBL) Alternative ID(s) of Target Chain>  (1) 


$$$$
