
     RDKit          2D

 36 40  0  0  0  0  0  0  0  0999 V2000
   -2.6583    0.8333    0.0000 N   0  0  0  0  0  0  0  0  0  0  0  0
   -2.6500   -3.2917    0.0000 C   0  0  0  0  0  0  0  0  0  0  0  0
   -1.9083    0.4958    0.0000 C   0  0  0  0  0  0  0  0  0  0  0  0
   -2.6500   -4.1125    0.0000 C   0  0  0  0  0  0  0  0  0  0  0  0
   -1.7625    1.8250    0.0000 N   0  0  0  0  0  0  0  0  0  0  0  0
   -2.5708    1.6500    0.0000 C   0  0  0  0  0  0  0  0  0  0  0  0
   -1.3500    1.1125    0.0000 C   0  0  0  0  0  0  0  0  0  0  0  0
   -3.3708   -4.5292    0.0000 N   0  0  0  0  0  0  0  0  0  0  0  0
   -3.3625   -2.8792    0.0000 C   0  0  0  0  0  0  0  0  0  0  0  0
   -1.6458   -0.2875    0.0000 N   0  0  0  0  0  0  0  0  0  0  0  0
   -1.9375   -2.8792    0.0000 C   0  0  0  0  0  0  0  0  0  0  0  0
   -4.0833   -3.2917    0.0000 C   0  0  0  0  0  0  0  0  0  0  0  0
   -4.0833   -4.1167    0.0000 C   0  0  0  0  0  0  0  0  0  0  0  0
   -0.5458    0.9458    0.0000 C   0  0  0  0  0  0  0  0  0  0  0  0
   -3.3708    0.4208    0.0000 C   0  0  0  0  0  0  0  0  0  0  0  0
   -1.9333   -4.5167    0.0000 N   0  0  0  0  0  0  0  0  0  0  0  0
   -3.3708   -2.0542    0.0000 C   0  0  0  0  0  0  0  0  0  0  0  0
   -0.8375   -0.4542    0.0000 C   0  0  0  0  0  0  0  0  0  0  0  0
   -0.2875    0.1625    0.0000 C   0  0  0  0  0  0  0  0  0  0  0  0
   -1.9458   -2.0542    0.0000 O   0  0  0  0  0  0  0  0  0  0  0  0
   -4.0833   -1.6417    0.0000 C   0  0  0  0  0  0  0  0  0  0  0  0
   -2.6500   -1.6417    0.0000 C   0  0  0  0  0  0  0  0  0  0  0  0
   -3.3708   -0.4042    0.0000 C   0  0  0  0  0  0  0  0  0  0  0  0
   -1.2208   -3.2875    0.0000 O   0  0  0  0  0  0  0  0  0  0  0  0
   -3.1833    2.2083    0.0000 C   0  0  0  0  0  0  0  0  0  0  0  0
   -4.0833   -0.8167    0.0000 C   0  0  0  0  0  0  0  0  0  0  0  0
   -2.6500   -0.8167    0.0000 C   0  0  0  0  0  0  0  0  0  0  0  0
    0.0042    1.5583    0.0000 C   0  0  0  0  0  0  0  0  0  0  0  0
   -4.7958   -2.8875    0.0000 C   0  0  0  0  0  0  0  0  0  0  0  0
   -4.7875   -4.5292    0.0000 C   0  0  0  0  0  0  0  0  0  0  0  0
   -1.9333   -5.3417    0.0000 C   0  0  0  0  0  0  0  0  0  0  0  0
   -1.2208   -4.1042    0.0000 C   0  0  0  0  0  0  0  0  0  0  0  0
   -0.5833   -1.2417    0.0000 C   0  0  0  0  0  0  0  0  0  0  0  0
   -3.0125    3.0083    0.0000 C   0  0  0  0  0  0  0  0  0  0  0  0
   -5.5083   -3.3042    0.0000 C   0  0  0  0  0  0  0  0  0  0  0  0
   -5.5000   -4.1292    0.0000 C   0  0  0  0  0  0  0  0  0  0  0  0
  2  9  2  0
  3  1  1  0
  4  2  1  0
  5  6  2  0
  6  1  1  0
  7  3  2  0
  8 13  1  0
  9 17  1  0
 10  3  1  0
 11  2  1  0
 12  9  1  0
 13 12  2  0
 14  7  1  0
 15  1  1  0
 16  4  1  0
 17 22  2  0
 18 10  2  0
 19 18  1  0
 20 11  2  0
 21 26  2  0
 22 27  1  0
 23 15  1  0
 24 11  1  0
 25  6  1  0
 26 23  1  0
 27 23  2  0
 28 14  1  0
 29 12  1  0
 30 13  1  0
 31 16  1  0
 32 16  1  0
 33 18  1  0
 34 25  1  0
 35 29  2  0
 36 35  1  0
  7  5  1  0
 21 17  1  0
 19 14  2  0
  4  8  2  0
 36 30  2  0
M  END
>  <From>  (1) 
www.bindingDB.org

>  <BindingDB Reactant_set_id>  (1) 
50267957

>  <Ligand InChI>  (1) 
InChI=1S/C29H29N5O2/c1-6-23-32-26-17(2)15-18(3)30-28(26)34(23)16-19-11-13-20(14-12-19)24-21-9-7-8-10-22(21)31-27(33(4)5)25(24)29(35)36/h7-15H,6,16H2,1-5H3,(H,35,36)

>  <Ligand InChI Key>  (1) 
CURMEZDKTSBASE-UHFFFAOYSA-N

>  <BindingDB MonomerID>  (1) 
50145970

>  <BindingDB Ligand Name>  (1) 
2-Dimethylamino-4-[4-(2-ethyl-5,7-dimethyl-imidazo[4,5-b]pyridin-3-ylmethyl)-phenyl]-quinoline-3-carboxylic acid::CHEMBL86436

>  <Target Name>  (1) 
Type-1 angiotensin II receptor B

>  <Target Source Organism According to Curator or DataSource>  (1) 
Rattus

>  <Ki (nM)>  (1) 


>  <IC50 (nM)>  (1) 
 29

>  <Kd (nM)>  (1) 


>  <EC50 (nM)>  (1) 


>  <kon (M-1-s-1)>  (1) 


>  <koff (s-1)>  (1) 


>  <pH>  (1) 


>  <Temp C>  (1) 


>  <Curation/DataSource>  (1) 
ChEMBL

>  <Article DOI>  (1) 
10.1021/jm031100t

>  <BindingDB Entry DOI>  (1) 
10.7270/Q25X28DX

>  <PMID>  (1) 
15115399

>  <PubChem AID>  (1) 


>  <Patent Number>  (1) 


>  <Authors>  (1) 
Cappelli, A; Pericot Mohr Gl, G; Gallelli, A; Rizzo, M; Anzini, M; Vomero, S; Mennuni, L; Ferrari, F; Makovec, F; Menziani, MC; De Benedetti, PG; Giorgi, G

>  <Institution>  (1) 
Universit&#224; di Siena

>  <Link to Ligand in BindingDB>  (1) 
http://www.bindingdb.org/bind/chemsearch/marvin/MolStructure.jsp?monomerid=50145970

>  <Link to Ligand-Target Pair in BindingDB>  (1) 
http://www.bindingdb.org/jsp/dbsearch/PrimarySearch_ki.jsp?energyterm=kJ/mole&tag=r21&monomerid=50145970&enzyme=Type-1+angiotensin+II+receptor+B&column=ki&startPg=0&Increment=50&submit=Search

>  <Ligand HET ID in PDB>  (1) 


>  <PDB ID(s) for Ligand-Target Complex>  (1) 


>  <PubChem CID of Ligand>  (1) 
11442998

>  <PubChem SID of Ligand>  (1) 
104034656

>  <ChEBI ID of Ligand>  (1) 


>  <ChEMBL ID of Ligand>  (1) 
CHEMBL86436

>  <DrugBank ID of Ligand>  (1) 


>  <IUPHAR_GRAC ID of Ligand>  (1) 


>  <KEGG ID of Ligand>  (1) 


>  <ZINC ID of Ligand>  (1) 
ZINC13560851

>  <Number of Protein Chains in Target (bigger than 1 implies a multichain complex)>  (1) 
1

>  <BindingDB Target Chain Sequence>  (1) 
MTLNSSTEDGIKRIQDDCPKAGRHNYIFVMIPTLYSIIFVVGIFGNSLVVIVIYFYMKLKTVASVFLLNLALADLCFLLTLPLWAVYTAMEYRWPFGNHLCKIASASVSFNLYASVFLLTCLSIDRYLAIVHPMKSRLRRTMLVAKVTCIIIWLMAGLASLPAVIYRNVYFIENTNITVCAFHYESQNSTLPIGLGLTKNILGFVFPFLIILTSYTLIWKALKKAYKIQKNTPRNDDIFRIIMAIVLFFFFSWVPHQIFTFLDVLIQLGIIRDCEIADIVDTAMPITICIAYFNNCLNPLFYGFLGKKFKKYFLQLLKYIPPTAKSHAGLSTKMSTLSYRPSDNMSSSAKKSASFFEVE

>  <PDB ID(s) of Target Chain>  (1) 


>  <UniProt (SwissProt) Recommended Name of Target Chain>  (1) 
Type-1 angiotensin II receptor B

>  <UniProt (SwissProt) Entry Name of Target Chain>  (1) 
AGTRB_RAT

>  <UniProt (SwissProt) Primary ID of Target Chain>  (1) 
P29089

>  <UniProt (SwissProt) Secondary ID(s) of Target Chain>  (1) 


>  <UniProt (SwissProt) Alternative ID(s) of Target Chain>  (1) 


>  <UniProt (TrEMBL) Submitted Name of Target Chain>  (1) 


>  <UniProt (TrEMBL) Entry Name of Target Chain>  (1) 


>  <UniProt (TrEMBL) Primary ID of Target Chain>  (1) 


>  <UniProt (TrEMBL) Secondary ID(s) of Target Chain>  (1) 


>  <UniProt (TrEMBL) Alternative ID(s) of Target Chain>  (1) 


$$$$
