
     RDKit          2D

 49 53  0  0  0  0  0  0  0  0999 V2000
    1.5917    2.3708    0.0000 N   0  0  0  0  0  0  0  0  0  0  0  0
    1.1875    1.1000    0.0000 N   0  0  0  0  0  0  0  0  0  0  0  0
    4.7500   -0.1167    0.0000 S   0  0  0  0  0  0  0  0  0  0  0  0
    1.8542    1.5875    0.0000 C   0  0  0  0  0  0  0  0  0  0  0  0
    0.7667    2.3708    0.0000 N   0  0  0  0  0  0  0  0  0  0  0  0
    0.5167    1.5833    0.0000 C   0  0  0  0  0  0  0  0  0  0  0  0
    4.7417    0.7083    0.0000 N   0  0  0  0  0  0  0  0  0  0  0  0
    5.4542    1.1250    0.0000 C   0  0  0  0  0  0  0  0  0  0  0  0
    1.7375    3.7958    0.0000 C   0  0  0  0  0  0  0  0  0  0  0  0
    2.0667    3.0458    0.0000 C   0  0  0  0  0  0  0  0  0  0  0  0
    4.7542   -0.9417    0.0000 C   0  0  0  0  0  0  0  0  0  0  0  0
    0.9167    3.8708    0.0000 C   0  0  0  0  0  0  0  0  0  0  0  0
    6.1667    0.7208    0.0000 C   0  0  0  0  0  0  0  0  0  0  0  0
    4.0500   -1.3542    0.0000 C   0  0  0  0  0  0  0  0  0  0  0  0
    1.1917    0.2750    0.0000 C   0  0  0  0  0  0  0  0  0  0  0  0
    5.5750   -0.1125    0.0000 O   0  0  0  0  0  0  0  0  0  0  0  0
    3.9250   -0.1250    0.0000 O   0  0  0  0  0  0  0  0  0  0  0  0
    2.6417    1.3375    0.0000 O   0  0  0  0  0  0  0  0  0  0  0  0
    5.4750   -1.3417    0.0000 C   0  0  0  0  0  0  0  0  0  0  0  0
    3.3375   -0.9500    0.0000 C   0  0  0  0  0  0  0  0  0  0  0  0
    6.8792    1.1333    0.0000 C   0  0  0  0  0  0  0  0  0  0  0  0
    4.0542   -2.1792    0.0000 C   0  0  0  0  0  0  0  0  0  0  0  0
    5.4500    1.9583    0.0000 O   0  0  0  0  0  0  0  0  0  0  0  0
    0.8792    3.0458    0.0000 F   0  0  0  0  0  0  0  0  0  0  0  0
    0.0917    3.8708    0.0000 F   0  0  0  0  0  0  0  0  0  0  0  0
    0.9542    4.6917    0.0000 F   0  0  0  0  0  0  0  0  0  0  0  0
    3.3292   -0.1167    0.0000 C   0  0  0  0  0  0  0  0  0  0  0  0
    2.6250   -1.3667    0.0000 C   0  0  0  0  0  0  0  0  0  0  0  0
    1.9042   -0.1292    0.0000 C   0  0  0  0  0  0  0  0  0  0  0  0
    5.4792   -2.1750    0.0000 C   0  0  0  0  0  0  0  0  0  0  0  0
    4.7667   -2.5917    0.0000 C   0  0  0  0  0  0  0  0  0  0  0  0
    6.8750    1.9583    0.0000 Cl  0  0  0  0  0  0  0  0  0  0  0  0
   -0.2625    1.3250    0.0000 C   0  0  0  0  0  0  0  0  0  0  0  0
    2.2167    4.4542    0.0000 C   0  0  0  0  0  0  0  0  0  0  0  0
    1.9042   -0.9542    0.0000 C   0  0  0  0  0  0  0  0  0  0  0  0
    2.6125    0.2833    0.0000 C   0  0  0  0  0  0  0  0  0  0  0  0
    6.1750   -0.1042    0.0000 C   0  0  0  0  0  0  0  0  0  0  0  0
    2.9000    2.9583    0.0000 C   0  0  0  0  0  0  0  0  0  0  0  0
    7.5917    0.7333    0.0000 C   0  0  0  0  0  0  0  0  0  0  0  0
    4.7750   -3.4167    0.0000 C   0  0  0  0  0  0  0  0  0  0  0  0
   -0.8833    1.8750    0.0000 C   0  0  0  0  0  0  0  0  0  0  0  0
    4.0625   -3.8292    0.0000 C   0  0  0  0  0  0  0  0  0  0  0  0
   -1.6625    1.6208    0.0000 C   0  0  0  0  0  0  0  0  0  0  0  0
    3.0417    4.3792    0.0000 C   0  0  0  0  0  0  0  0  0  0  0  0
    6.8917   -0.5167    0.0000 C   0  0  0  0  0  0  0  0  0  0  0  0
    3.3792    3.6250    0.0000 C   0  0  0  0  0  0  0  0  0  0  0  0
   -2.2750    2.1708    0.0000 C   0  0  0  0  0  0  0  0  0  0  0  0
    4.0667   -4.6542    0.0000 C   0  0  0  0  0  0  0  0  0  0  0  0
    7.6042   -0.0917    0.0000 C   0  0  0  0  0  0  0  0  0  0  0  0
  2  4  1  0
  3 11  1  0
  4  1  1  0
  5  1  1  0
  6  5  2  0
  7  3  1  0
  8  7  1  0
  9 10  2  0
 10  1  1  0
 11 14  1  0
 12  9  1  0
 13  8  1  0
 14 20  1  0
 15  2  1  0
 16  3  2  0
 17  3  2  0
 18  4  2  0
 19 11  2  0
 20 27  2  0
 21 13  2  0
 22 14  2  0
 23  8  2  0
 24 12  1  0
 25 12  1  0
 26 12  1  0
 27 36  1  0
 28 35  2  0
 29 15  1  0
 30 31  2  0
 31 22  1  0
 32 21  1  0
 33  6  1  0
 34  9  1  0
 35 29  1  0
 36 29  2  0
 37 13  1  0
 38 10  1  0
 39 21  1  0
 40 31  1  0
 41 33  1  0
 42 40  1  0
 43 41  1  0
 44 46  1  0
 45 37  2  0
 46 38  2  0
 47 43  1  0
 48 42  1  0
 49 45  1  0
  2  6  1  0
 44 34  2  0
 20 28  1  0
 19 30  1  0
 49 39  2  0
M  END
>  <From>  (1) 
www.bindingDB.org

>  <BindingDB Reactant_set_id>  (1) 
50470315

>  <Ligand InChI>  (1) 
InChI=1S/C36H34ClF3N4O4S/c1-3-5-15-33-41-44(31-14-9-7-12-29(31)36(38,39)40)35(46)43(33)23-25-16-19-26(20-17-25)28-22-24(10-4-2)18-21-32(28)49(47,48)42-34(45)27-11-6-8-13-30(27)37/h6-9,11-14,16-22H,3-5,10,15,23H2,1-2H3,(H,42,45)

>  <Ligand InChI Key>  (1) 
RGUYQWOEKYEDNB-UHFFFAOYSA-N

>  <BindingDB MonomerID>  (1) 
50283761

>  <BindingDB Ligand Name>  (1) 
4'-[3-Butyl-5-oxo-1-(2-trifluoromethyl-phenyl)-1,5-dihydro-[1,2,4]triazol-4-ylmethyl]-5-propyl-biphenyl-2-sulfonic acid 2-chloro-benzoylamide::CHEMBL316299

>  <Target Name>  (1) 
Type-1 angiotensin II receptor

>  <Target Source Organism According to Curator or DataSource>  (1) 
Oryctolagus cuniculus

>  <Ki (nM)>  (1) 


>  <IC50 (nM)>  (1) 
 1.3

>  <Kd (nM)>  (1) 


>  <EC50 (nM)>  (1) 


>  <kon (M-1-s-1)>  (1) 


>  <koff (s-1)>  (1) 


>  <pH>  (1) 


>  <Temp C>  (1) 


>  <Curation/DataSource>  (1) 
ChEMBL

>  <Article DOI>  (1) 
10.1016/S0960-894X(01)80595-3

>  <BindingDB Entry DOI>  (1) 
10.7270/Q2WS8T68

>  <PMID>  (1) 


>  <PubChem AID>  (1) 


>  <Patent Number>  (1) 


>  <Authors>  (1) 
Chang, LL; Ashton, WT; Flanagan, KL; Rivero, RA; Chen, TB; O'Malley, SS; Zingaro, GJ; Kivlighn, SD; Siegl, PK; Lotti, VJ; Chang, RS; Greenlee, WJ

>  <Institution>  (1) 
TBA

>  <Link to Ligand in BindingDB>  (1) 
http://www.bindingdb.org/bind/chemsearch/marvin/MolStructure.jsp?monomerid=50283761

>  <Link to Ligand-Target Pair in BindingDB>  (1) 
http://www.bindingdb.org/jsp/dbsearch/PrimarySearch_ki.jsp?energyterm=kJ/mole&tag=r21&monomerid=50283761&enzyme=Type-1+angiotensin+II+receptor&column=ki&startPg=0&Increment=50&submit=Search

>  <Ligand HET ID in PDB>  (1) 


>  <PDB ID(s) for Ligand-Target Complex>  (1) 


>  <PubChem CID of Ligand>  (1) 
19939409

>  <PubChem SID of Ligand>  (1) 
104125418

>  <ChEBI ID of Ligand>  (1) 


>  <ChEMBL ID of Ligand>  (1) 
CHEMBL316299

>  <DrugBank ID of Ligand>  (1) 


>  <IUPHAR_GRAC ID of Ligand>  (1) 


>  <KEGG ID of Ligand>  (1) 


>  <ZINC ID of Ligand>  (1) 
ZINC26675487

>  <Number of Protein Chains in Target (bigger than 1 implies a multichain complex)>  (1) 
1

>  <BindingDB Target Chain Sequence>  (1) 
MMLNSSTEDGIKRIQDDCPKAGRHNYIFVMIPTLYSIIFVVGIFGNSLAVIVIYFYMKLKTVASVFLLNLALADLCFLLTLPLWAVYTAMEYRWPFGNYLCKIASASVSFNLYASVFLLTCLSIDRYLAIVHPMKSRLRRTMLVAKVTCIIIWLLAGLASLPAIIHRNVFFIENTNITVCAFHYESQNSTLPIGLGLTKNILGFLFPFLIILTSYTLIWKALKKAYEIQKNKPRNDDIFKIIMAIVLFFFFSWVPHQIFTFLDVLIQLGVIHDCRIADIVDTAMPITICIAYFNNCLNPLFYGFLGKKFKKYFLQLLKYIPPKAKSHSNLSTKMSTLSYRPSDNVSSSSKKPVPCFEVE

>  <PDB ID(s) of Target Chain>  (1) 
6DO1,6OS0,6OS1,6OS2

>  <UniProt (SwissProt) Recommended Name of Target Chain>  (1) 
Type-1 angiotensin II receptor

>  <UniProt (SwissProt) Entry Name of Target Chain>  (1) 
AGTR1_RABIT

>  <UniProt (SwissProt) Primary ID of Target Chain>  (1) 
P34976

>  <UniProt (SwissProt) Secondary ID(s) of Target Chain>  (1) 


>  <UniProt (SwissProt) Alternative ID(s) of Target Chain>  (1) 


>  <UniProt (TrEMBL) Submitted Name of Target Chain>  (1) 


>  <UniProt (TrEMBL) Entry Name of Target Chain>  (1) 


>  <UniProt (TrEMBL) Primary ID of Target Chain>  (1) 


>  <UniProt (TrEMBL) Secondary ID(s) of Target Chain>  (1) 


>  <UniProt (TrEMBL) Alternative ID(s) of Target Chain>  (1) 


$$$$
