
     RDKit          2D

 36 41  0  0  0  0  0  0  0  0999 V2000
    4.6625   -6.1000    0.0000 C   0  0  0  0  0  0  0  0  0  0  0  0
    4.6625   -5.2792    0.0000 C   0  0  0  0  0  0  0  0  0  0  0  0
    3.9500   -6.5167    0.0000 N   0  0  0  0  0  0  0  0  0  0  0  0
    4.6542   -1.1542    0.0000 N   0  0  0  0  0  0  0  0  0  0  0  0
    5.4125   -1.4917    0.0000 C   0  0  0  0  0  0  0  0  0  0  0  0
    3.9500   -4.8667    0.0000 C   0  0  0  0  0  0  0  0  0  0  0  0
    5.5500   -0.1542    0.0000 N   0  0  0  0  0  0  0  0  0  0  0  0
    4.7417   -0.3375    0.0000 C   0  0  0  0  0  0  0  0  0  0  0  0
    5.9625   -0.8750    0.0000 C   0  0  0  0  0  0  0  0  0  0  0  0
    4.1250   -7.3250    0.0000 N   0  0  0  0  0  0  0  0  0  0  0  0
    5.2792   -6.6542    0.0000 N   0  0  0  0  0  0  0  0  0  0  0  0
    4.9417   -7.4042    0.0000 N   0  0  0  0  0  0  0  0  0  0  0  0
    3.2292   -5.2792    0.0000 C   0  0  0  0  0  0  0  0  0  0  0  0
    3.2292   -6.1042    0.0000 C   0  0  0  0  0  0  0  0  0  0  0  0
    5.6667   -2.2750    0.0000 N   0  0  0  0  0  0  0  0  0  0  0  0
    5.3750   -4.8667    0.0000 C   0  0  0  0  0  0  0  0  0  0  0  0
    6.7667   -1.0417    0.0000 C   0  0  0  0  0  0  0  0  0  0  0  0
    3.9417   -4.0417    0.0000 C   0  0  0  0  0  0  0  0  0  0  0  0
    3.9417   -1.5667    0.0000 C   0  0  0  0  0  0  0  0  0  0  0  0
    6.4750   -2.4417    0.0000 C   0  0  0  0  0  0  0  0  0  0  0  0
    7.0250   -1.8250    0.0000 C   0  0  0  0  0  0  0  0  0  0  0  0
    5.3667   -4.0417    0.0000 O   0  0  0  0  0  0  0  0  0  0  0  0
    3.2292   -3.6292    0.0000 C   0  0  0  0  0  0  0  0  0  0  0  0
    4.6625   -3.6292    0.0000 C   0  0  0  0  0  0  0  0  0  0  0  0
    3.9417   -2.3917    0.0000 C   0  0  0  0  0  0  0  0  0  0  0  0
    6.0917   -5.2750    0.0000 O   0  0  0  0  0  0  0  0  0  0  0  0
    4.1292    0.2125    0.0000 C   0  0  0  0  0  0  0  0  0  0  0  0
    2.5167   -4.8750    0.0000 C   0  0  0  0  0  0  0  0  0  0  0  0
    3.2292   -2.8042    0.0000 C   0  0  0  0  0  0  0  0  0  0  0  0
    4.6625   -2.8042    0.0000 C   0  0  0  0  0  0  0  0  0  0  0  0
    2.5250   -6.5167    0.0000 C   0  0  0  0  0  0  0  0  0  0  0  0
    7.3167   -0.4292    0.0000 C   0  0  0  0  0  0  0  0  0  0  0  0
    6.7292   -3.2292    0.0000 C   0  0  0  0  0  0  0  0  0  0  0  0
    4.3000    1.0208    0.0000 C   0  0  0  0  0  0  0  0  0  0  0  0
    1.8042   -5.2917    0.0000 C   0  0  0  0  0  0  0  0  0  0  0  0
    1.8125   -6.1167    0.0000 C   0  0  0  0  0  0  0  0  0  0  0  0
  2  1  1  0
  3  1  1  0
  4 19  1  0
  5  4  1  0
  6  2  2  0
  7  8  2  0
  8  4  1  0
  9  5  2  0
 10  3  1  0
 11  1  2  0
 12 11  1  0
 13 14  2  0
 14  3  1  0
 15  5  1  0
 16  2  1  0
 17  9  1  0
 18  6  1  0
 19 25  1  0
 20 15  2  0
 21 20  1  0
 22 16  2  0
 23 18  2  0
 24 18  1  0
 25 30  1  0
 26 16  1  0
 27  8  1  0
 28 13  1  0
 29 23  1  0
 30 24  2  0
 31 14  1  0
 32 17  1  0
 33 20  1  0
 34 27  1  0
 35 36  1  0
 36 31  2  0
 10 12  2  0
 13  6  1  0
 28 35  2  0
 29 25  2  0
  9  7  1  0
 21 17  2  0
M  END
>  <From>  (1) 
www.bindingDB.org

>  <BindingDB Reactant_set_id>  (1) 
50267985

>  <Ligand InChI>  (1) 
InChI=1S/C27H23N7O2/c1-4-21-29-24-15(2)13-16(3)28-26(24)33(21)14-17-9-11-18(12-10-17)22-19-7-5-6-8-20(19)34-25(30-31-32-34)23(22)27(35)36/h5-13H,4,14H2,1-3H3,(H,35,36)

>  <Ligand InChI Key>  (1) 
HCPXGEGUGVVACK-UHFFFAOYSA-N

>  <BindingDB MonomerID>  (1) 
50145993

>  <BindingDB Ligand Name>  (1) 
5-[4-(2-Ethyl-5,7-dimethyl-imidazo[4,5-b]pyridin-3-ylmethyl)-phenyl]-1,2,3,9b-tetraaza-cyclopenta[a]naphthalene-4-carboxylic acid::CHEMBL86655

>  <Target Name>  (1) 
Type-1 angiotensin II receptor B

>  <Target Source Organism According to Curator or DataSource>  (1) 
Rattus

>  <Ki (nM)>  (1) 


>  <IC50 (nM)>  (1) 
 52

>  <Kd (nM)>  (1) 


>  <EC50 (nM)>  (1) 


>  <kon (M-1-s-1)>  (1) 


>  <koff (s-1)>  (1) 


>  <pH>  (1) 


>  <Temp C>  (1) 


>  <Curation/DataSource>  (1) 
ChEMBL

>  <Article DOI>  (1) 
10.1021/jm031100t

>  <BindingDB Entry DOI>  (1) 
10.7270/Q25X28DX

>  <PMID>  (1) 
15115399

>  <PubChem AID>  (1) 


>  <Patent Number>  (1) 


>  <Authors>  (1) 
Cappelli, A; Pericot Mohr Gl, G; Gallelli, A; Rizzo, M; Anzini, M; Vomero, S; Mennuni, L; Ferrari, F; Makovec, F; Menziani, MC; De Benedetti, PG; Giorgi, G

>  <Institution>  (1) 
Universit&#224; di Siena

>  <Link to Ligand in BindingDB>  (1) 
http://www.bindingdb.org/bind/chemsearch/marvin/MolStructure.jsp?monomerid=50145993

>  <Link to Ligand-Target Pair in BindingDB>  (1) 
http://www.bindingdb.org/jsp/dbsearch/PrimarySearch_ki.jsp?energyterm=kJ/mole&tag=r21&monomerid=50145993&enzyme=Type-1+angiotensin+II+receptor+B&column=ki&startPg=0&Increment=50&submit=Search

>  <Ligand HET ID in PDB>  (1) 


>  <PDB ID(s) for Ligand-Target Complex>  (1) 


>  <PubChem CID of Ligand>  (1) 
11477098

>  <PubChem SID of Ligand>  (1) 
104034679

>  <ChEBI ID of Ligand>  (1) 


>  <ChEMBL ID of Ligand>  (1) 
CHEMBL86655

>  <DrugBank ID of Ligand>  (1) 


>  <IUPHAR_GRAC ID of Ligand>  (1) 


>  <KEGG ID of Ligand>  (1) 


>  <ZINC ID of Ligand>  (1) 
ZINC13560858

>  <Number of Protein Chains in Target (bigger than 1 implies a multichain complex)>  (1) 
1

>  <BindingDB Target Chain Sequence>  (1) 
MTLNSSTEDGIKRIQDDCPKAGRHNYIFVMIPTLYSIIFVVGIFGNSLVVIVIYFYMKLKTVASVFLLNLALADLCFLLTLPLWAVYTAMEYRWPFGNHLCKIASASVSFNLYASVFLLTCLSIDRYLAIVHPMKSRLRRTMLVAKVTCIIIWLMAGLASLPAVIYRNVYFIENTNITVCAFHYESQNSTLPIGLGLTKNILGFVFPFLIILTSYTLIWKALKKAYKIQKNTPRNDDIFRIIMAIVLFFFFSWVPHQIFTFLDVLIQLGIIRDCEIADIVDTAMPITICIAYFNNCLNPLFYGFLGKKFKKYFLQLLKYIPPTAKSHAGLSTKMSTLSYRPSDNMSSSAKKSASFFEVE

>  <PDB ID(s) of Target Chain>  (1) 


>  <UniProt (SwissProt) Recommended Name of Target Chain>  (1) 
Type-1 angiotensin II receptor B

>  <UniProt (SwissProt) Entry Name of Target Chain>  (1) 
AGTRB_RAT

>  <UniProt (SwissProt) Primary ID of Target Chain>  (1) 
P29089

>  <UniProt (SwissProt) Secondary ID(s) of Target Chain>  (1) 


>  <UniProt (SwissProt) Alternative ID(s) of Target Chain>  (1) 


>  <UniProt (TrEMBL) Submitted Name of Target Chain>  (1) 


>  <UniProt (TrEMBL) Entry Name of Target Chain>  (1) 


>  <UniProt (TrEMBL) Primary ID of Target Chain>  (1) 


>  <UniProt (TrEMBL) Secondary ID(s) of Target Chain>  (1) 


>  <UniProt (TrEMBL) Alternative ID(s) of Target Chain>  (1) 


$$$$
