
     RDKit          2D

 40 43  0  0  0  0  0  0  0  0999 V2000
    3.6417   -5.0542    0.0000 N   0  0  0  0  0  0  0  0  0  0  0  0
    2.6667   -5.0542    0.0000 N   0  0  0  0  0  0  0  0  0  0  0  0
    3.1542   -5.4042    0.0000 C   0  0  0  0  0  0  0  0  0  0  0  0
    2.8542   -4.4792    0.0000 C   0  0  0  0  0  0  0  0  0  0  0  0
    3.4542   -4.4792    0.0000 C   0  0  0  0  0  0  0  0  0  0  0  0
    2.5042   -3.9917    0.0000 C   0  0  0  0  0  0  0  0  0  0  0  0
    1.5042   -3.6042    0.0000 N   0  0  0  0  0  0  0  0  0  0  0  0
    1.9042   -4.0542    0.0000 C   0  0  0  0  0  0  0  0  0  0  0  0
    0.9500   -4.4042    0.0000 N   0  0  0  0  0  0  0  0  0  0  0  0
    0.9542   -3.8542    0.0000 C   0  0  0  0  0  0  0  0  0  0  0  0
    1.6042   -4.5750    0.0000 C   0  0  0  0  0  0  0  0  0  0  0  0
    2.1000   -5.2375    0.0000 C   0  0  0  0  0  0  0  0  0  0  0  0
    3.9042   -2.2792    0.0000 C   0  0  0  0  0  0  0  0  0  0  0  0
    3.1667   -5.7500    0.0000 O   0  0  0  0  0  0  0  0  0  0  0  0
    1.6292   -3.0167    0.0000 C   0  0  0  0  0  0  0  0  0  0  0  0
    3.8042   -3.9917    0.0000 O   0  0  0  0  0  0  0  0  0  0  0  0
    3.3292   -2.4250    0.0000 C   0  0  0  0  0  0  0  0  0  0  0  0
    4.0792   -1.7042    0.0000 O   0  0  0  0  0  0  0  0  0  0  0  0
    2.0167   -5.8792    0.0000 C   0  0  0  0  0  0  0  0  0  0  0  0
    4.2125   -5.2375    0.0000 C   0  0  0  0  0  0  0  0  0  0  0  0
    2.9042   -2.0125    0.0000 C   0  0  0  0  0  0  0  0  0  0  0  0
    3.2167   -3.0542    0.0000 C   0  0  0  0  0  0  0  0  0  0  0  0
    2.1917   -2.8375    0.0000 C   0  0  0  0  0  0  0  0  0  0  0  0
    1.4167   -6.1292    0.0000 C   0  0  0  0  0  0  0  0  0  0  0  0
    4.3250   -2.7167    0.0000 O   0  0  0  0  0  0  0  0  0  0  0  0
    1.3292   -6.7750    0.0000 C   0  0  0  0  0  0  0  0  0  0  0  0
    2.3167   -2.2542    0.0000 C   0  0  0  0  0  0  0  0  0  0  0  0
    2.6417   -3.2417    0.0000 C   0  0  0  0  0  0  0  0  0  0  0  0
    0.7292   -7.0250    0.0000 Cl  0  0  0  0  0  0  0  0  0  0  0  0
    0.4375   -3.5542    0.0000 C   0  0  0  0  0  0  0  0  0  0  0  0
    2.4542   -6.9167    0.0000 C   0  0  0  0  0  0  0  0  0  0  0  0
    2.5292   -6.2667    0.0000 C   0  0  0  0  0  0  0  0  0  0  0  0
    1.8500   -7.1667    0.0000 C   0  0  0  0  0  0  0  0  0  0  0  0
    4.9042   -2.5750    0.0000 C   0  0  0  0  0  0  0  0  0  0  0  0
    4.3375   -5.8250    0.0000 C   0  0  0  0  0  0  0  0  0  0  0  0
   -0.0833   -3.8542    0.0000 C   0  0  0  0  0  0  0  0  0  0  0  0
    4.9042   -6.0042    0.0000 C   0  0  0  0  0  0  0  0  0  0  0  0
   -0.6083   -3.5542    0.0000 C   0  0  0  0  0  0  0  0  0  0  0  0
    5.0292   -6.5917    0.0000 C   0  0  0  0  0  0  0  0  0  0  0  0
   -1.1208   -3.8542    0.0000 C   0  0  0  0  0  0  0  0  0  0  0  0
  2  3  1  0
  3  1  1  0
  4  5  1  0
  5  1  1  0
  6  4  2  0
  7  8  1  0
  8  6  1  0
  9 11  1  0
 10  7  1  0
 11  8  2  0
 12  2  1  0
 13 17  1  0
 14  3  2  0
 15  7  1  0
 16  5  2  0
 17 22  2  0
 18 13  2  0
 19 12  1  0
 20  1  1  0
 21 27  2  0
 22 28  1  0
 23 15  1  0
 24 19  2  0
 25 13  1  0
 26 24  1  0
 27 23  1  0
 28 23  2  0
 29 26  1  0
 30 10  1  0
 31 32  2  0
 32 19  1  0
 33 31  1  0
 34 25  1  0
 35 20  1  0
 36 30  1  0
 37 35  1  0
 38 36  1  0
 39 37  1  0
 40 38  1  0
  2  4  1  0
 10  9  2  0
 26 33  2  0
 17 21  1  0
M  END
>  <From>  (1) 
www.bindingDB.org

>  <BindingDB Reactant_set_id>  (1) 
51186032

>  <Ligand InChI>  (1) 
InChI=1S/C31H35ClN4O4/c1-4-6-11-28-33-19-26(35(28)20-22-12-14-24(15-13-22)30(38)40-3)18-27-29(37)34(16-7-5-2)31(39)36(27)21-23-9-8-10-25(32)17-23/h8-10,12-15,17-19H,4-7,11,16,20-21H2,1-3H3/b27-18-

>  <Ligand InChI Key>  (1) 
QRDLHUVMWWTAQN-IMRQLAEWSA-N

>  <BindingDB MonomerID>  (1) 
50487652

>  <BindingDB Ligand Name>  (1) 
CHEMBL125233

>  <Target Name>  (1) 
Type-1 angiotensin II receptor

>  <Target Source Organism According to Curator or DataSource>  (1) 
Homo sapiens

>  <Ki (nM)>  (1) 


>  <IC50 (nM)>  (1) 
 117

>  <Kd (nM)>  (1) 


>  <EC50 (nM)>  (1) 


>  <kon (M-1-s-1)>  (1) 


>  <koff (s-1)>  (1) 


>  <pH>  (1) 


>  <Temp C>  (1) 


>  <Curation/DataSource>  (1) 
ChEMBL

>  <Article DOI>  (1) 
10.1007/s00044-009-9205-9

>  <BindingDB Entry DOI>  (1) 
10.7270/Q2CC13K2

>  <PMID>  (1) 


>  <PubChem AID>  (1) 


>  <Patent Number>  (1) 


>  <Authors>  (1) 
n/a

>  <Institution>  (1) 
n/a

>  <Link to Ligand in BindingDB>  (1) 
http://www.bindingdb.org/bind/chemsearch/marvin/MolStructure.jsp?monomerid=50487652

>  <Link to Ligand-Target Pair in BindingDB>  (1) 
http://www.bindingdb.org/jsp/dbsearch/PrimarySearch_ki.jsp?energyterm=kJ/mole&tag=r21&monomerid=50487652&enzyme=Type-1+angiotensin+II+receptor&column=ki&startPg=0&Increment=50&submit=Search

>  <Ligand HET ID in PDB>  (1) 


>  <PDB ID(s) for Ligand-Target Complex>  (1) 


>  <PubChem CID of Ligand>  (1) 
10257293

>  <PubChem SID of Ligand>  (1) 
433954917

>  <ChEBI ID of Ligand>  (1) 


>  <ChEMBL ID of Ligand>  (1) 


>  <DrugBank ID of Ligand>  (1) 


>  <IUPHAR_GRAC ID of Ligand>  (1) 


>  <KEGG ID of Ligand>  (1) 


>  <ZINC ID of Ligand>  (1) 


>  <Number of Protein Chains in Target (bigger than 1 implies a multichain complex)>  (1) 
1

>  <BindingDB Target Chain Sequence>  (1) 
MILNSSTEDGIKRIQDDCPKAGRHNYIFVMIPTLYSIIFVVGIFGNSLVVIVIYFYMKLKTVASVFLLNLALADLCFLLTLPLWAVYTAMEYRWPFGNYLCKIASASVSFNLYASVFLLTCLSIDRYLAIVHPMKSRLRRTMLVAKVTCIIIWLLAGLASLPAIIHRNVFFIENTNITVCAFHYESQNSTLPIGLGLTKNILGFLFPFLIILTSYTLIWKALKKAYEIQKNKPRNDDIFKIIMAIVLFFFFSWIPHQIFTFLDVLIQLGIIRDCRIADIVDTAMPITICIAYFNNCLNPLFYGFLGKKFKRYFLQLLKYIPPKAKSHSNLSTKMSTLSYRPSDNVSSSTKKPAPCFEVE

>  <PDB ID(s) of Target Chain>  (1) 
6DO1,6OS0,6OS1,6OS2

>  <UniProt (SwissProt) Recommended Name of Target Chain>  (1) 
Type-1 angiotensin II receptor

>  <UniProt (SwissProt) Entry Name of Target Chain>  (1) 
AGTR1_HUMAN

>  <UniProt (SwissProt) Primary ID of Target Chain>  (1) 
P30556

>  <UniProt (SwissProt) Secondary ID(s) of Target Chain>  (1) 
Q13725 Q8TBK4

>  <UniProt (SwissProt) Alternative ID(s) of Target Chain>  (1) 


>  <UniProt (TrEMBL) Submitted Name of Target Chain>  (1) 


>  <UniProt (TrEMBL) Entry Name of Target Chain>  (1) 


>  <UniProt (TrEMBL) Primary ID of Target Chain>  (1) 


>  <UniProt (TrEMBL) Secondary ID(s) of Target Chain>  (1) 


>  <UniProt (TrEMBL) Alternative ID(s) of Target Chain>  (1) 


$$$$
