
     RDKit          2D

 43 47  0  0  0  0  0  0  0  0999 V2000
    2.5312   -2.4739    0.0000 N   0  0  0  0  0  0  0  0  0  0  0  0
    1.2026   -2.4739    0.0000 N   0  0  0  0  0  0  0  0  0  0  0  0
    1.8726   -2.9607    0.0000 C   0  0  0  0  0  0  0  0  0  0  0  0
    1.4603   -1.6836    0.0000 C   0  0  0  0  0  0  0  0  0  0  0  0
    2.2849   -1.6836    0.0000 C   0  0  0  0  0  0  0  0  0  0  0  0
    0.9679   -1.0194    0.0000 C   0  0  0  0  0  0  0  0  0  0  0  0
   -0.4065   -0.4868    0.0000 N   0  0  0  0  0  0  0  0  0  0  0  0
    0.1546   -1.1053    0.0000 C   0  0  0  0  0  0  0  0  0  0  0  0
   -1.0652   -1.6379    0.0000 N   0  0  0  0  0  0  0  0  0  0  0  0
    0.5669   -4.2778    0.0000 N   0  0  0  0  0  0  0  0  0  0  0  0
   -1.1511   -0.8246    0.0000 C   0  0  0  0  0  0  0  0  0  0  0  0
    0.2463   -3.5277    0.0000 C   0  0  0  0  0  0  0  0  0  0  0  0
   -0.2691   -1.8097    0.0000 C   0  0  0  0  0  0  0  0  0  0  0  0
    2.9034    1.3343    0.0000 C   0  0  0  0  0  0  0  0  0  0  0  0
    0.4181   -2.7202    0.0000 C   0  0  0  0  0  0  0  0  0  0  0  0
   -0.0629   -4.8276    0.0000 C   0  0  0  0  0  0  0  0  0  0  0  0
   -0.7673   -4.4039    0.0000 S   0  0  0  0  0  0  0  0  0  0  0  0
    2.8920    2.1589    0.0000 C   0  0  0  0  0  0  0  0  0  0  0  0
   -0.5783   -3.5964    0.0000 C   0  0  0  0  0  0  0  0  0  0  0  0
    1.8612   -3.7854    0.0000 O   0  0  0  0  0  0  0  0  0  0  0  0
   -0.2347    0.3206    0.0000 C   0  0  0  0  0  0  0  0  0  0  0  0
    2.7546   -1.0194    0.0000 O   0  0  0  0  0  0  0  0  0  0  0  0
    2.1017    1.1453    0.0000 C   0  0  0  0  0  0  0  0  0  0  0  0
    3.5964    2.5884    0.0000 O   0  0  0  0  0  0  0  0  0  0  0  0
    3.3215   -2.7202    0.0000 C   0  0  0  0  0  0  0  0  0  0  0  0
    1.9471    0.2691    0.0000 C   0  0  0  0  0  0  0  0  0  0  0  0
    1.5176    1.7122    0.0000 C   0  0  0  0  0  0  0  0  0  0  0  0
    0.5555    0.5783    0.0000 C   0  0  0  0  0  0  0  0  0  0  0  0
    2.1705    2.5712    0.0000 O   0  0  0  0  0  0  0  0  0  0  0  0
    0.7273    1.3744    0.0000 C   0  0  0  0  0  0  0  0  0  0  0  0
    1.1682    0.0172    0.0000 C   0  0  0  0  0  0  0  0  0  0  0  0
   -1.8669   -0.4123    0.0000 C   0  0  0  0  0  0  0  0  0  0  0  0
    3.1325    0.5440    0.0000 C   0  0  0  0  0  0  0  0  0  0  0  0
    3.5792    1.7981    0.0000 C   0  0  0  0  0  0  0  0  0  0  0  0
    0.0058   -5.6522    0.0000 C   0  0  0  0  0  0  0  0  0  0  0  0
    3.4933   -3.5277    0.0000 C   0  0  0  0  0  0  0  0  0  0  0  0
   -2.5884   -0.8246    0.0000 C   0  0  0  0  0  0  0  0  0  0  0  0
    4.2778   -3.7854    0.0000 C   0  0  0  0  0  0  0  0  0  0  0  0
   -3.2986   -0.4123    0.0000 C   0  0  0  0  0  0  0  0  0  0  0  0
    4.2321    1.2999    0.0000 C   0  0  0  0  0  0  0  0  0  0  0  0
    3.9572    0.5268    0.0000 C   0  0  0  0  0  0  0  0  0  0  0  0
    4.4496   -4.5928    0.0000 C   0  0  0  0  0  0  0  0  0  0  0  0
   -4.0144   -0.8246    0.0000 C   0  0  0  0  0  0  0  0  0  0  0  0
  2  3  1  0
  3  1  1  0
  4  5  1  0
  5  1  1  0
  6  4  2  0
  7  8  1  0
  8  6  1  0
  9 13  1  0
 10 12  1  0
 11  7  1  0
 12 15  1  0
 13  8  2  0
 14 23  1  0
 15  2  1  0
 16 10  2  0
 17 19  1  0
 18 14  1  0
 19 12  2  0
 20  3  2  0
 21  7  1  0
 22  5  2  0
 23 26  2  0
 24 18  2  0
 25  1  1  0
 26 31  1  0
 27 30  2  0
 28 21  1  0
 29 18  1  0
 30 28  1  0
 31 28  2  0
 32 11  1  0
 33 14  1  0
 34 14  1  0
 35 16  1  0
 36 25  1  0
 37 32  1  0
 38 36  1  0
 39 37  1  0
 40 34  1  0
 41 33  1  0
 42 38  1  0
 43 39  1  0
  2  4  1  0
 11  9  2  0
 17 16  1  0
 27 23  1  0
 41 40  1  0
M  END
>  <From>  (1) 
www.bindingDB.org

>  <BindingDB Reactant_set_id>  (1) 
51186042

>  <Ligand InChI>  (1) 
InChI=1S/C33H41N5O4S/c1-4-6-10-29-34-19-27(37(29)20-24-11-13-25(14-12-24)33(31(40)41)15-8-9-16-33)18-28-30(39)36(17-7-5-2)32(42)38(28)21-26-22-43-23(3)35-26/h11-14,18-19,22H,4-10,15-17,20-21H2,1-3H3,(H,40,41)/b28-18-

>  <Ligand InChI Key>  (1) 
JNVJJEJSICHPPI-VEILYXNESA-N

>  <BindingDB MonomerID>  (1) 
50030748

>  <BindingDB Ligand Name>  (1) 
1-(4-{2-Butyl-5-[1-butyl-3-(2-methyl-thiazol-4-ylmethyl)-2,5-dioxo-imidazolidin-(4Z)-ylidenemethyl]-imidazol-1-ylmethyl}-phenyl)-cyclopentanecarboxylic acid::CHEMBL339544

>  <Target Name>  (1) 
Type-1 angiotensin II receptor

>  <Target Source Organism According to Curator or DataSource>  (1) 
Homo sapiens

>  <Ki (nM)>  (1) 


>  <IC50 (nM)>  (1) 
 8.0

>  <Kd (nM)>  (1) 


>  <EC50 (nM)>  (1) 


>  <kon (M-1-s-1)>  (1) 


>  <koff (s-1)>  (1) 


>  <pH>  (1) 


>  <Temp C>  (1) 


>  <Curation/DataSource>  (1) 
ChEMBL

>  <Article DOI>  (1) 
10.1007/s00044-009-9205-9

>  <BindingDB Entry DOI>  (1) 
10.7270/Q2CC13K2

>  <PMID>  (1) 


>  <PubChem AID>  (1) 


>  <Patent Number>  (1) 


>  <Authors>  (1) 
n/a

>  <Institution>  (1) 
n/a

>  <Link to Ligand in BindingDB>  (1) 
http://www.bindingdb.org/bind/chemsearch/marvin/MolStructure.jsp?monomerid=50030748

>  <Link to Ligand-Target Pair in BindingDB>  (1) 
http://www.bindingdb.org/jsp/dbsearch/PrimarySearch_ki.jsp?energyterm=kJ/mole&tag=r21&monomerid=50030748&enzyme=Type-1+angiotensin+II+receptor&column=ki&startPg=0&Increment=50&submit=Search

>  <Ligand HET ID in PDB>  (1) 


>  <PDB ID(s) for Ligand-Target Complex>  (1) 


>  <PubChem CID of Ligand>  (1) 
11758341

>  <PubChem SID of Ligand>  (1) 
103939596

>  <ChEBI ID of Ligand>  (1) 


>  <ChEMBL ID of Ligand>  (1) 
CHEMBL339544

>  <DrugBank ID of Ligand>  (1) 


>  <IUPHAR_GRAC ID of Ligand>  (1) 


>  <KEGG ID of Ligand>  (1) 


>  <ZINC ID of Ligand>  (1) 
ZINC27210414

>  <Number of Protein Chains in Target (bigger than 1 implies a multichain complex)>  (1) 
1

>  <BindingDB Target Chain Sequence>  (1) 
MILNSSTEDGIKRIQDDCPKAGRHNYIFVMIPTLYSIIFVVGIFGNSLVVIVIYFYMKLKTVASVFLLNLALADLCFLLTLPLWAVYTAMEYRWPFGNYLCKIASASVSFNLYASVFLLTCLSIDRYLAIVHPMKSRLRRTMLVAKVTCIIIWLLAGLASLPAIIHRNVFFIENTNITVCAFHYESQNSTLPIGLGLTKNILGFLFPFLIILTSYTLIWKALKKAYEIQKNKPRNDDIFKIIMAIVLFFFFSWIPHQIFTFLDVLIQLGIIRDCRIADIVDTAMPITICIAYFNNCLNPLFYGFLGKKFKRYFLQLLKYIPPKAKSHSNLSTKMSTLSYRPSDNVSSSTKKPAPCFEVE

>  <PDB ID(s) of Target Chain>  (1) 
6DO1,6OS0,6OS1,6OS2

>  <UniProt (SwissProt) Recommended Name of Target Chain>  (1) 
Type-1 angiotensin II receptor

>  <UniProt (SwissProt) Entry Name of Target Chain>  (1) 
AGTR1_HUMAN

>  <UniProt (SwissProt) Primary ID of Target Chain>  (1) 
P30556

>  <UniProt (SwissProt) Secondary ID(s) of Target Chain>  (1) 
Q13725 Q8TBK4

>  <UniProt (SwissProt) Alternative ID(s) of Target Chain>  (1) 


>  <UniProt (TrEMBL) Submitted Name of Target Chain>  (1) 


>  <UniProt (TrEMBL) Entry Name of Target Chain>  (1) 


>  <UniProt (TrEMBL) Primary ID of Target Chain>  (1) 


>  <UniProt (TrEMBL) Secondary ID(s) of Target Chain>  (1) 


>  <UniProt (TrEMBL) Alternative ID(s) of Target Chain>  (1) 


$$$$
