
     RDKit          2D

 39 43  0  0  0  0  0  0  0  0999 V2000
    6.9953   -8.8516    0.0000 N   0  0  0  0  0  0  0  0  0  0  0  0
    7.6542   -9.3386    0.0000 C   0  0  0  0  0  0  0  0  0  0  0  0
    7.3964  -10.1292    0.0000 C   0  0  0  0  0  0  0  0  0  0  0  0
    6.3250   -9.3386    0.0000 N   0  0  0  0  0  0  0  0  0  0  0  0
    6.5714  -10.1292    0.0000 C   0  0  0  0  0  0  0  0  0  0  0  0
   11.2922   -9.2813    0.0000 C   0  0  0  0  0  0  0  0  0  0  0  0
   10.8855   -8.0094    0.0000 N   0  0  0  0  0  0  0  0  0  0  0  0
   10.6277   -8.7886    0.0000 N   0  0  0  0  0  0  0  0  0  0  0  0
   11.7105   -8.0152    0.0000 N   0  0  0  0  0  0  0  0  0  0  0  0
   11.9625   -8.8000    0.0000 N   0  0  0  0  0  0  0  0  0  0  0  0
    7.1902   -8.0495    0.0000 C   0  0  0  0  0  0  0  0  0  0  0  0
    8.4448   -9.0808    0.0000 C   0  0  0  0  0  0  0  0  0  0  0  0
   11.5730  -10.0605    0.0000 C   0  0  0  0  0  0  0  0  0  0  0  0
   11.1777  -10.7823    0.0000 C   0  0  0  0  0  0  0  0  0  0  0  0
    7.8891  -10.7938    0.0000 C   0  0  0  0  0  0  0  0  0  0  0  0
    6.6058   -7.4823    0.0000 C   0  0  0  0  0  0  0  0  0  0  0  0
   10.3527  -10.7823    0.0000 C   0  0  0  0  0  0  0  0  0  0  0  0
    9.2355   -9.4761    0.0000 O   0  0  0  0  0  0  0  0  0  0  0  0
    9.9344  -10.0777    0.0000 C   0  0  0  0  0  0  0  0  0  0  0  0
    9.9402  -11.4984    0.0000 C   0  0  0  0  0  0  0  0  0  0  0  0
    6.7948   -6.6917    0.0000 C   0  0  0  0  0  0  0  0  0  0  0  0
    8.7027  -10.7823    0.0000 C   0  0  0  0  0  0  0  0  0  0  0  0
    8.6167   -8.2730    0.0000 O   0  0  0  0  0  0  0  0  0  0  0  0
    9.1152  -11.5042    0.0000 C   0  0  0  0  0  0  0  0  0  0  0  0
    9.1152  -10.0777    0.0000 C   0  0  0  0  0  0  0  0  0  0  0  0
    6.0730   -6.2792    0.0000 Cl  0  0  0  0  0  0  0  0  0  0  0  0
    6.0902  -10.7938    0.0000 C   0  0  0  0  0  0  0  0  0  0  0  0
    7.9808   -7.8261    0.0000 C   0  0  0  0  0  0  0  0  0  0  0  0
   12.3980  -10.0605    0.0000 C   0  0  0  0  0  0  0  0  0  0  0  0
   11.5902  -11.4984    0.0000 C   0  0  0  0  0  0  0  0  0  0  0  0
    8.1813   -7.0355    0.0000 C   0  0  0  0  0  0  0  0  0  0  0  0
    7.5855   -6.4625    0.0000 C   0  0  0  0  0  0  0  0  0  0  0  0
    9.4073   -8.0495    0.0000 C   0  0  0  0  0  0  0  0  0  0  0  0
    5.2652  -10.7823    0.0000 C   0  0  0  0  0  0  0  0  0  0  0  0
    4.8469  -11.4870    0.0000 C   0  0  0  0  0  0  0  0  0  0  0  0
   12.4152  -11.4870    0.0000 C   0  0  0  0  0  0  0  0  0  0  0  0
   12.8219  -10.7766    0.0000 C   0  0  0  0  0  0  0  0  0  0  0  0
    9.6308   -7.2589    0.0000 C   0  0  0  0  0  0  0  0  0  0  0  0
    4.0219  -11.4870    0.0000 C   0  0  0  0  0  0  0  0  0  0  0  0
  2  1  1  0
  3  2  2  0
  4  1  1  0
  5  4  2  0
  6 13  1  0
  7  8  1  0
  8  6  1  0
  9 10  1  0
 10  6  2  0
 11  1  1  0
 12  2  1  0
 13 14  1  0
 14 17  1  0
 15  3  1  0
 16 11  2  0
 17 19  2  0
 18 12  2  0
 19 25  1  0
 20 24  2  0
 21 16  1  0
 22 15  1  0
 23 12  1  0
 24 22  1  0
 25 22  2  0
 26 21  1  0
 27  5  1  0
 28 11  1  0
 29 13  2  0
 30 14  2  0
 31 28  2  0
 32 31  1  0
 33 23  1  0
 34 27  1  0
 35 34  1  0
 36 30  1  0
 37 36  2  0
 38 33  1  0
 39 35  1  0
  3  5  1  0
 21 32  2  0
 17 20  1  0
 37 29  1  0
  7  9  2  0
M  END
>  <From>  (1) 
www.bindingDB.org

>  <BindingDB Reactant_set_id>  (1) 
50061738

>  <Ligand InChI>  (1) 
InChI=1S/C30H29ClN6O2/c1-3-5-13-27-26(28(30(38)39-4-2)37(34-27)23-10-8-9-22(31)19-23)18-20-14-16-21(17-15-20)24-11-6-7-12-25(24)29-32-35-36-33-29/h6-12,14-17,19H,3-5,13,18H2,1-2H3,(H,32,33,35,36)

>  <Ligand InChI Key>  (1) 
OQFCGMYXNSPJFQ-UHFFFAOYSA-N

>  <BindingDB MonomerID>  (1) 
50042548

>  <BindingDB Ligand Name>  (1) 
5-Butyl-2-(3-chloro-phenyl)-4-[2'-(1H-tetrazol-5-yl)-biphenyl-4-ylmethyl]-2H-pyrazole-3-carboxylic acid ethyl ester::CHEMBL93289

>  <Target Name>  (1) 
Type-1 angiotensin II receptor

>  <Target Source Organism According to Curator or DataSource>  (1) 
Oryctolagus cuniculus

>  <Ki (nM)>  (1) 


>  <IC50 (nM)>  (1) 
 55

>  <Kd (nM)>  (1) 


>  <EC50 (nM)>  (1) 


>  <kon (M-1-s-1)>  (1) 


>  <koff (s-1)>  (1) 


>  <pH>  (1) 


>  <Temp C>  (1) 


>  <Curation/DataSource>  (1) 
ChEMBL

>  <Article DOI>  (1) 
10.1021/jm00075a014

>  <BindingDB Entry DOI>  (1) 
10.7270/Q25Q4V5H

>  <PMID>  (1) 
8246227

>  <PubChem AID>  (1) 


>  <Patent Number>  (1) 


>  <Authors>  (1) 
Ashton, WT; Hutchins, SM; Greenlee, WJ; Doss, GA; Chang, RS; Lotti, VJ; Faust, KA; Chen, TB; Zingaro, GJ; Kivlighn, SD

>  <Institution>  (1) 
Merck Research Laboratories

>  <Link to Ligand in BindingDB>  (1) 
http://www.bindingdb.org/bind/chemsearch/marvin/MolStructure.jsp?monomerid=50042548

>  <Link to Ligand-Target Pair in BindingDB>  (1) 
http://www.bindingdb.org/jsp/dbsearch/PrimarySearch_ki.jsp?energyterm=kJ/mole&tag=r21&monomerid=50042548&enzyme=Type-1+angiotensin+II+receptor&column=ki&startPg=0&Increment=50&submit=Search

>  <Ligand HET ID in PDB>  (1) 


>  <PDB ID(s) for Ligand-Target Complex>  (1) 


>  <PubChem CID of Ligand>  (1) 
14971674

>  <PubChem SID of Ligand>  (1) 
103974144

>  <ChEBI ID of Ligand>  (1) 


>  <ChEMBL ID of Ligand>  (1) 
CHEMBL93289

>  <DrugBank ID of Ligand>  (1) 


>  <IUPHAR_GRAC ID of Ligand>  (1) 


>  <KEGG ID of Ligand>  (1) 


>  <ZINC ID of Ligand>  (1) 
ZINC26651705

>  <Number of Protein Chains in Target (bigger than 1 implies a multichain complex)>  (1) 
1

>  <BindingDB Target Chain Sequence>  (1) 
MMLNSSTEDGIKRIQDDCPKAGRHNYIFVMIPTLYSIIFVVGIFGNSLAVIVIYFYMKLKTVASVFLLNLALADLCFLLTLPLWAVYTAMEYRWPFGNYLCKIASASVSFNLYASVFLLTCLSIDRYLAIVHPMKSRLRRTMLVAKVTCIIIWLLAGLASLPAIIHRNVFFIENTNITVCAFHYESQNSTLPIGLGLTKNILGFLFPFLIILTSYTLIWKALKKAYEIQKNKPRNDDIFKIIMAIVLFFFFSWVPHQIFTFLDVLIQLGVIHDCRIADIVDTAMPITICIAYFNNCLNPLFYGFLGKKFKKYFLQLLKYIPPKAKSHSNLSTKMSTLSYRPSDNVSSSSKKPVPCFEVE

>  <PDB ID(s) of Target Chain>  (1) 
6DO1,6OS0,6OS1,6OS2

>  <UniProt (SwissProt) Recommended Name of Target Chain>  (1) 
Type-1 angiotensin II receptor

>  <UniProt (SwissProt) Entry Name of Target Chain>  (1) 
AGTR1_RABIT

>  <UniProt (SwissProt) Primary ID of Target Chain>  (1) 
P34976

>  <UniProt (SwissProt) Secondary ID(s) of Target Chain>  (1) 


>  <UniProt (SwissProt) Alternative ID(s) of Target Chain>  (1) 


>  <UniProt (TrEMBL) Submitted Name of Target Chain>  (1) 


>  <UniProt (TrEMBL) Entry Name of Target Chain>  (1) 


>  <UniProt (TrEMBL) Primary ID of Target Chain>  (1) 


>  <UniProt (TrEMBL) Secondary ID(s) of Target Chain>  (1) 


>  <UniProt (TrEMBL) Alternative ID(s) of Target Chain>  (1) 


$$$$
