
     RDKit          2D

 47 53  0  0  0  0  0  0  0  0999 V2000
    6.1021   -6.0787    0.0000 N   0  0  0  0  0  0  0  0  0  0  0  0
    6.1099   -6.9082    0.0000 C   0  0  0  0  0  0  0  0  0  0  0  0
    5.3895   -5.6699    0.0000 C   0  0  0  0  0  0  0  0  0  0  0  0
    5.3972   -7.3288    0.0000 N   0  0  0  0  0  0  0  0  0  0  0  0
    4.6769   -6.0904    0.0000 C   0  0  0  0  0  0  0  0  0  0  0  0
   10.3778   -6.0515    0.0000 C   0  0  0  0  0  0  0  0  0  0  0  0
    1.8224   -6.0904    0.0000 C   0  0  0  0  0  0  0  0  0  0  0  0
    9.9573   -4.7820    0.0000 N   0  0  0  0  0  0  0  0  0  0  0  0
    2.5390   -5.6815    0.0000 N   0  0  0  0  0  0  0  0  0  0  0  0
    4.6769   -6.9159    0.0000 C   0  0  0  0  0  0  0  0  0  0  0  0
    9.7080   -5.5725    0.0000 N   0  0  0  0  0  0  0  0  0  0  0  0
   10.7828   -4.7781    0.0000 N   0  0  0  0  0  0  0  0  0  0  0  0
   11.0437   -5.5608    0.0000 N   0  0  0  0  0  0  0  0  0  0  0  0
    3.9642   -5.6776    0.0000 C   0  0  0  0  0  0  0  0  0  0  0  0
    3.2516   -6.0904    0.0000 C   0  0  0  0  0  0  0  0  0  0  0  0
   10.3895   -6.8731    0.0000 C   0  0  0  0  0  0  0  0  0  0  0  0
    1.1098   -5.6815    0.0000 C   0  0  0  0  0  0  0  0  0  0  0  0
    9.6847   -7.2937    0.0000 C   0  0  0  0  0  0  0  0  0  0  0  0
    6.8147   -5.6659    0.0000 C   0  0  0  0  0  0  0  0  0  0  0  0
    0.3271   -5.9386    0.0000 S   0  0  0  0  0  0  0  0  0  0  0  0
    5.3856   -4.8482    0.0000 O   0  0  0  0  0  0  0  0  0  0  0  0
    2.5351   -4.8521    0.0000 C   0  0  0  0  0  0  0  0  0  0  0  0
    8.9643   -6.8926    0.0000 C   0  0  0  0  0  0  0  0  0  0  0  0
    1.8224   -6.9199    0.0000 O   0  0  0  0  0  0  0  0  0  0  0  0
    1.1137   -4.8599    0.0000 C   0  0  0  0  0  0  0  0  0  0  0  0
    3.9642   -7.3288    0.0000 C   0  0  0  0  0  0  0  0  0  0  0  0
    6.8264   -7.3171    0.0000 C   0  0  0  0  0  0  0  0  0  0  0  0
   -0.1596   -5.2727    0.0000 C   0  0  0  0  0  0  0  0  0  0  0  0
    3.2516   -6.9199    0.0000 C   0  0  0  0  0  0  0  0  0  0  0  0
    0.3271   -4.6028    0.0000 C   0  0  0  0  0  0  0  0  0  0  0  0
    8.2517   -7.3054    0.0000 C   0  0  0  0  0  0  0  0  0  0  0  0
    8.9604   -6.0554    0.0000 C   0  0  0  0  0  0  0  0  0  0  0  0
    7.5351   -6.0748    0.0000 C   0  0  0  0  0  0  0  0  0  0  0  0
    3.2516   -4.4393    0.0000 C   0  0  0  0  0  0  0  0  0  0  0  0
    8.2400   -5.6582    0.0000 C   0  0  0  0  0  0  0  0  0  0  0  0
    7.5390   -6.8965    0.0000 C   0  0  0  0  0  0  0  0  0  0  0  0
   11.1099   -7.2820    0.0000 C   0  0  0  0  0  0  0  0  0  0  0  0
    9.6886   -8.1231    0.0000 C   0  0  0  0  0  0  0  0  0  0  0  0
    6.8264   -8.1465    0.0000 C   0  0  0  0  0  0  0  0  0  0  0  0
    7.6519   -7.3171    0.0000 C   0  0  0  0  0  0  0  0  0  0  0  0
    3.2399   -3.6215    0.0000 C   0  0  0  0  0  0  0  0  0  0  0  0
    3.9603   -4.8521    0.0000 C   0  0  0  0  0  0  0  0  0  0  0  0
   11.1216   -8.1115    0.0000 C   0  0  0  0  0  0  0  0  0  0  0  0
   10.4012   -8.5281    0.0000 C   0  0  0  0  0  0  0  0  0  0  0  0
    4.6769   -4.4432    0.0000 C   0  0  0  0  0  0  0  0  0  0  0  0
    3.9526   -3.2049    0.0000 C   0  0  0  0  0  0  0  0  0  0  0  0
    4.6769   -3.6138    0.0000 C   0  0  0  0  0  0  0  0  0  0  0  0
  2  1  1  0
  3  1  1  0
  4  2  2  0
  5  3  1  0
  6 16  1  0
  7  9  1  0
  8 11  1  0
  9 15  1  0
 10  5  2  0
 11  6  1  0
 12 13  1  0
 13  6  2  0
 14  5  1  0
 15 14  2  0
 16 18  1  0
 17  7  1  0
 18 23  1  0
 19  1  1  0
 20 17  1  0
 21  3  2  0
 22  9  1  0
 23 31  2  0
 24  7  2  0
 25 17  2  0
 26 10  1  0
 27  2  1  0
 28 20  1  0
 29 15  1  0
 30 25  1  0
 31 36  1  0
 32 35  2  0
 33 19  1  0
 34 22  1  0
 35 33  1  0
 36 33  2  0
 37 16  2  0
 38 18  2  0
 39 27  1  0
 40 27  1  0
 41 34  2  0
 42 34  1  0
 43 44  2  0
 44 38  1  0
 45 42  2  0
 46 41  1  0
 47 45  1  0
 10  4  1  0
 32 23  1  0
 26 29  2  0
 37 43  1  0
 30 28  2  0
 12  8  2  0
 46 47  2  0
M  END
>  <From>  (1) 
www.bindingDB.org

>  <BindingDB Reactant_set_id>  (1) 
50002899

>  <Ligand InChI>  (1) 
InChI=1S/C37H31N7O2S/c1-24(2)35-38-32-19-18-28(43(22-25-9-4-3-5-10-25)37(46)33-13-8-20-47-33)21-31(32)36(45)44(35)23-26-14-16-27(17-15-26)29-11-6-7-12-30(29)34-39-41-42-40-34/h3-21,24H,22-23H2,1-2H3,(H,39,40,41,42)

>  <Ligand InChI Key>  (1) 
BJEGHUOJTHEZOS-UHFFFAOYSA-N

>  <BindingDB MonomerID>  (1) 
50282702

>  <BindingDB Ligand Name>  (1) 
CHEMBL290768::Thiophene-2-carboxylic acid benzyl-{2-isopropyl-4-oxo-3-[2'-(1H-tetrazol-5-yl)-biphenyl-4-ylmethyl]-3,4-dihydro-quinazolin-6-yl}-amide

>  <Target Name>  (1) 
Type-1 angiotensin II receptor

>  <Target Source Organism According to Curator or DataSource>  (1) 
Oryctolagus cuniculus

>  <Ki (nM)>  (1) 


>  <IC50 (nM)>  (1) 
 42

>  <Kd (nM)>  (1) 


>  <EC50 (nM)>  (1) 


>  <kon (M-1-s-1)>  (1) 


>  <koff (s-1)>  (1) 


>  <pH>  (1) 


>  <Temp C>  (1) 


>  <Curation/DataSource>  (1) 
ChEMBL

>  <Article DOI>  (1) 
10.1016/S0960-894X(01)80517-5

>  <BindingDB Entry DOI>  (1) 
10.7270/Q2BC401G

>  <PMID>  (1) 


>  <PubChem AID>  (1) 


>  <Patent Number>  (1) 


>  <Authors>  (1) 
Glinka, TW; de Laszlo, SE; Tran, J; Chang, RS; Chen, T; Lotti, VJ; Greenlee, WJ

>  <Institution>  (1) 
TBA

>  <Link to Ligand in BindingDB>  (1) 
http://www.bindingdb.org/bind/chemsearch/marvin/MolStructure.jsp?monomerid=50282702

>  <Link to Ligand-Target Pair in BindingDB>  (1) 
http://www.bindingdb.org/jsp/dbsearch/PrimarySearch_ki.jsp?energyterm=kJ/mole&tag=r21&monomerid=50282702&enzyme=Type-1+angiotensin+II+receptor&column=ki&startPg=0&Increment=50&submit=Search

>  <Ligand HET ID in PDB>  (1) 


>  <PDB ID(s) for Ligand-Target Complex>  (1) 


>  <PubChem CID of Ligand>  (1) 
44283480

>  <PubChem SID of Ligand>  (1) 
104124376

>  <ChEBI ID of Ligand>  (1) 


>  <ChEMBL ID of Ligand>  (1) 
CHEMBL290768

>  <DrugBank ID of Ligand>  (1) 


>  <IUPHAR_GRAC ID of Ligand>  (1) 


>  <KEGG ID of Ligand>  (1) 


>  <ZINC ID of Ligand>  (1) 
ZINC29310121

>  <Number of Protein Chains in Target (bigger than 1 implies a multichain complex)>  (1) 
1

>  <BindingDB Target Chain Sequence>  (1) 
MMLNSSTEDGIKRIQDDCPKAGRHNYIFVMIPTLYSIIFVVGIFGNSLAVIVIYFYMKLKTVASVFLLNLALADLCFLLTLPLWAVYTAMEYRWPFGNYLCKIASASVSFNLYASVFLLTCLSIDRYLAIVHPMKSRLRRTMLVAKVTCIIIWLLAGLASLPAIIHRNVFFIENTNITVCAFHYESQNSTLPIGLGLTKNILGFLFPFLIILTSYTLIWKALKKAYEIQKNKPRNDDIFKIIMAIVLFFFFSWVPHQIFTFLDVLIQLGVIHDCRIADIVDTAMPITICIAYFNNCLNPLFYGFLGKKFKKYFLQLLKYIPPKAKSHSNLSTKMSTLSYRPSDNVSSSSKKPVPCFEVE

>  <PDB ID(s) of Target Chain>  (1) 
6DO1,6OS0,6OS1,6OS2

>  <UniProt (SwissProt) Recommended Name of Target Chain>  (1) 
Type-1 angiotensin II receptor

>  <UniProt (SwissProt) Entry Name of Target Chain>  (1) 
AGTR1_RABIT

>  <UniProt (SwissProt) Primary ID of Target Chain>  (1) 
P34976

>  <UniProt (SwissProt) Secondary ID(s) of Target Chain>  (1) 


>  <UniProt (SwissProt) Alternative ID(s) of Target Chain>  (1) 


>  <UniProt (TrEMBL) Submitted Name of Target Chain>  (1) 


>  <UniProt (TrEMBL) Entry Name of Target Chain>  (1) 


>  <UniProt (TrEMBL) Primary ID of Target Chain>  (1) 


>  <UniProt (TrEMBL) Secondary ID(s) of Target Chain>  (1) 


>  <UniProt (TrEMBL) Alternative ID(s) of Target Chain>  (1) 


$$$$
