
     RDKit          2D

 35 38  0  0  0  0  0  0  0  0999 V2000
   17.4609  -20.2812    0.0000 C   0  0  0  0  0  0  0  0  0  0  0  0
   17.4597  -21.1007    0.0000 C   0  0  0  0  0  0  0  0  0  0  0  0
   18.1678  -21.5097    0.0000 C   0  0  0  0  0  0  0  0  0  0  0  0
   18.8774  -21.1002    0.0000 C   0  0  0  0  0  0  0  0  0  0  0  0
   18.8746  -20.2776    0.0000 C   0  0  0  0  0  0  0  0  0  0  0  0
   18.1660  -19.8723    0.0000 C   0  0  0  0  0  0  0  0  0  0  0  0
   19.5858  -21.5077    0.0000 N   0  0  0  0  0  0  0  0  0  0  0  0
   20.2929  -21.0980    0.0000 C   0  0  0  0  0  0  0  0  0  0  0  0
   21.0012  -21.5055    0.0000 C   0  0  0  0  0  0  0  0  0  0  0  0
   20.2916  -20.2808    0.0000 O   0  0  0  0  0  0  0  0  0  0  0  0
   20.9979  -22.3211    0.0000 C   0  0  0  0  0  0  0  0  0  0  0  0
   21.7054  -22.7285    0.0000 C   0  0  0  0  0  0  0  0  0  0  0  0
   22.4134  -22.3188    0.0000 C   0  0  0  0  0  0  0  0  0  0  0  0
   22.4095  -21.4974    0.0000 C   0  0  0  0  0  0  0  0  0  0  0  0
   21.7014  -21.0937    0.0000 C   0  0  0  0  0  0  0  0  0  0  0  0
   16.7531  -19.8727    0.0000 C   0  0  0  0  0  0  0  0  0  0  0  0
   16.7529  -19.0555    0.0000 N   0  0  0  0  0  0  0  0  0  0  0  0
   17.4197  -18.5763    0.0000 C   0  0  0  0  0  0  0  0  0  0  0  0
   17.1670  -17.7991    0.0000 N   0  0  0  0  0  0  0  0  0  0  0  0
   16.3497  -17.7993    0.0000 N   0  0  0  0  0  0  0  0  0  0  0  0
   16.0975  -18.5766    0.0000 C   0  0  0  0  0  0  0  0  0  0  0  0
   15.3200  -18.8282    0.0000 C   0  0  0  0  0  0  0  0  0  0  0  0
   15.1492  -19.6273    0.0000 C   0  0  0  0  0  0  0  0  0  0  0  0
   15.7558  -20.1749    0.0000 C   0  0  0  0  0  0  0  0  0  0  0  0
   15.5849  -20.9740    0.0000 C   0  0  0  0  0  0  0  0  0  0  0  0
   21.6908  -20.2755    0.0000 C   0  0  0  0  0  0  0  0  0  0  0  0
   18.1963  -18.8307    0.0000 S   0  0  0  0  0  0  0  0  0  0  0  0
   18.8049  -18.2854    0.0000 C   0  0  0  0  0  0  0  0  0  0  0  0
   22.3428  -19.7852    0.0000 N   0  0  0  0  0  0  0  0  0  0  0  0
   22.0798  -19.0103    0.0000 N   0  0  0  0  0  0  0  0  0  0  0  0
   21.2616  -19.0210    0.0000 N   0  0  0  0  0  0  0  0  0  0  0  0
   21.0190  -19.8024    0.0000 N   0  0  0  0  0  0  0  0  0  0  0  0
   18.6369  -17.4856    0.0000 C   0  0  0  0  0  0  0  0  0  0  0  0
   19.2456  -16.9403    0.0000 C   0  0  0  0  0  0  0  0  0  0  0  0
   17.8604  -17.2312    0.0000 C   0  0  0  0  0  0  0  0  0  0  0  0
  1  2  2  0
  2  3  1  0
  3  4  2  0
  4  5  1  0
  5  6  2  0
  6  1  1  0
  4  7  1  0
  7  8  1  0
  8  9  1  0
  8 10  2  0
  9 11  2  0
 11 12  1  0
 12 13  2  0
 13 14  1  0
 14 15  2  0
 15  9  1  0
  1 16  1  0
 16 17  1  0
 17 18  1  0
 18 19  2  0
 19 20  1  0
 20 21  2  0
 21 17  1  0
 21 22  1  0
 22 23  1  0
 23 24  1  0
 24 25  1  0
 15 26  1  0
 18 27  1  0
 27 28  1  0
 26 29  2  0
 29 30  1  0
 30 31  2  0
 31 32  1  0
 32 26  1  0
 28 33  1  0
 33 34  1  0
 33 35  1  0
M  END
>  <From>  (1) 
www.bindingDB.org

>  <BindingDB Reactant_set_id>  (1) 
51183582

>  <Ligand InChI>  (1) 
InChI=1S/C25H30N8OS/c1-4-5-10-22-27-30-25(35-16-17(2)3)33(22)15-18-11-13-19(14-12-18)26-24(34)21-9-7-6-8-20(21)23-28-31-32-29-23/h6-9,11-14,17H,4-5,10,15-16H2,1-3H3,(H,26,34)(H,28,29,31,32)

>  <Ligand InChI Key>  (1) 
FPPSQDPPIKRYFN-UHFFFAOYSA-N

>  <BindingDB MonomerID>  (1) 
50486766

>  <BindingDB Ligand Name>  (1) 
CHEMBL2237585

>  <Target Name>  (1) 
Type-1 angiotensin II receptor

>  <Target Source Organism According to Curator or DataSource>  (1) 
Oryctolagus cuniculus

>  <Ki (nM)>  (1) 


>  <IC50 (nM)>  (1) 
 72

>  <Kd (nM)>  (1) 


>  <EC50 (nM)>  (1) 


>  <kon (M-1-s-1)>  (1) 


>  <koff (s-1)>  (1) 


>  <pH>  (1) 


>  <Temp C>  (1) 


>  <Curation/DataSource>  (1) 
ChEMBL

>  <Article DOI>  (1) 
10.1007/s00044-011-9756-4

>  <BindingDB Entry DOI>  (1) 
10.7270/Q2833VXQ

>  <PMID>  (1) 


>  <PubChem AID>  (1) 


>  <Patent Number>  (1) 


>  <Authors>  (1) 
n/a

>  <Institution>  (1) 
n/a

>  <Link to Ligand in BindingDB>  (1) 
http://www.bindingdb.org/bind/chemsearch/marvin/MolStructure.jsp?monomerid=50486766

>  <Link to Ligand-Target Pair in BindingDB>  (1) 
http://www.bindingdb.org/jsp/dbsearch/PrimarySearch_ki.jsp?energyterm=kJ/mole&tag=r21&monomerid=50486766&enzyme=Type-1+angiotensin+II+receptor&column=ki&startPg=0&Increment=50&submit=Search

>  <Ligand HET ID in PDB>  (1) 


>  <PDB ID(s) for Ligand-Target Complex>  (1) 


>  <PubChem CID of Ligand>  (1) 
76329881

>  <PubChem SID of Ligand>  (1) 
433954031

>  <ChEBI ID of Ligand>  (1) 


>  <ChEMBL ID of Ligand>  (1) 


>  <DrugBank ID of Ligand>  (1) 


>  <IUPHAR_GRAC ID of Ligand>  (1) 


>  <KEGG ID of Ligand>  (1) 


>  <ZINC ID of Ligand>  (1) 


>  <Number of Protein Chains in Target (bigger than 1 implies a multichain complex)>  (1) 
1

>  <BindingDB Target Chain Sequence>  (1) 
MMLNSSTEDGIKRIQDDCPKAGRHNYIFVMIPTLYSIIFVVGIFGNSLAVIVIYFYMKLKTVASVFLLNLALADLCFLLTLPLWAVYTAMEYRWPFGNYLCKIASASVSFNLYASVFLLTCLSIDRYLAIVHPMKSRLRRTMLVAKVTCIIIWLLAGLASLPAIIHRNVFFIENTNITVCAFHYESQNSTLPIGLGLTKNILGFLFPFLIILTSYTLIWKALKKAYEIQKNKPRNDDIFKIIMAIVLFFFFSWVPHQIFTFLDVLIQLGVIHDCRIADIVDTAMPITICIAYFNNCLNPLFYGFLGKKFKKYFLQLLKYIPPKAKSHSNLSTKMSTLSYRPSDNVSSSSKKPVPCFEVE

>  <PDB ID(s) of Target Chain>  (1) 
6DO1,6OS0,6OS1,6OS2

>  <UniProt (SwissProt) Recommended Name of Target Chain>  (1) 
Type-1 angiotensin II receptor

>  <UniProt (SwissProt) Entry Name of Target Chain>  (1) 
AGTR1_RABIT

>  <UniProt (SwissProt) Primary ID of Target Chain>  (1) 
P34976

>  <UniProt (SwissProt) Secondary ID(s) of Target Chain>  (1) 


>  <UniProt (SwissProt) Alternative ID(s) of Target Chain>  (1) 


>  <UniProt (TrEMBL) Submitted Name of Target Chain>  (1) 


>  <UniProt (TrEMBL) Entry Name of Target Chain>  (1) 


>  <UniProt (TrEMBL) Primary ID of Target Chain>  (1) 


>  <UniProt (TrEMBL) Secondary ID(s) of Target Chain>  (1) 


>  <UniProt (TrEMBL) Alternative ID(s) of Target Chain>  (1) 


$$$$
