
     RDKit          2D

 37 41  0  0  0  0  0  0  0  0999 V2000
   -1.2646   -1.4821    0.0000 S   0  0  0  0  0  0  0  0  0  0  0  0
    2.3577   -1.9113    0.0000 N   0  0  0  0  0  0  0  0  0  0  0  0
    2.4263   -0.5723    0.0000 N   0  0  0  0  0  0  0  0  0  0  0  0
   -0.5607   -1.9285    0.0000 N   0  0  0  0  0  0  0  0  0  0  0  0
    2.8727   -1.2704    0.0000 C   0  0  0  0  0  0  0  0  0  0  0  0
    1.5851   -1.6195    0.0000 C   0  0  0  0  0  0  0  0  0  0  0  0
    1.6309   -0.7955    0.0000 C   0  0  0  0  0  0  0  0  0  0  0  0
    0.8584   -1.9972    0.0000 C   0  0  0  0  0  0  0  0  0  0  0  0
    0.1717   -1.5508    0.0000 C   0  0  0  0  0  0  0  0  0  0  0  0
    5.9227   -3.9714    0.0000 C   0  0  0  0  0  0  0  0  0  0  0  0
    5.2074   -4.3834    0.0000 C   0  0  0  0  0  0  0  0  0  0  0  0
    5.9113   -3.1474    0.0000 C   0  0  0  0  0  0  0  0  0  0  0  0
   -1.9742   -1.0701    0.0000 O   0  0  0  0  0  0  0  0  0  0  0  0
   -0.5493   -1.0701    0.0000 O   0  0  0  0  0  0  0  0  0  0  0  0
    2.3577   -2.7354    0.0000 C   0  0  0  0  0  0  0  0  0  0  0  0
    4.4978   -3.9714    0.0000 C   0  0  0  0  0  0  0  0  0  0  0  0
    0.9328   -0.3491    0.0000 C   0  0  0  0  0  0  0  0  0  0  0  0
    0.2060   -0.7268    0.0000 C   0  0  0  0  0  0  0  0  0  0  0  0
    5.2017   -2.7467    0.0000 O   0  0  0  0  0  0  0  0  0  0  0  0
   -1.9914   -1.8598    0.0000 C   0  0  0  0  0  0  0  0  0  0  0  0
    3.7825   -4.3834    0.0000 C   0  0  0  0  0  0  0  0  0  0  0  0
    4.4978   -3.1474    0.0000 C   0  0  0  0  0  0  0  0  0  0  0  0
    3.0729   -3.1474    0.0000 C   0  0  0  0  0  0  0  0  0  0  0  0
    6.6265   -2.7354    0.0000 O   0  0  0  0  0  0  0  0  0  0  0  0
   -0.6009   -2.7525    0.0000 C   0  0  0  0  0  0  0  0  0  0  0  0
    3.6967   -1.3105    0.0000 C   0  0  0  0  0  0  0  0  0  0  0  0
    3.7825   -2.7354    0.0000 C   0  0  0  0  0  0  0  0  0  0  0  0
    3.0729   -3.9714    0.0000 C   0  0  0  0  0  0  0  0  0  0  0  0
    6.6323   -4.3776    0.0000 C   0  0  0  0  0  0  0  0  0  0  0  0
    5.2074   -5.2074    0.0000 C   0  0  0  0  0  0  0  0  0  0  0  0
    4.1431   -0.6180    0.0000 C   0  0  0  0  0  0  0  0  0  0  0  0
   -2.0371   -2.6838    0.0000 C   0  0  0  0  0  0  0  0  0  0  0  0
    4.9671   -0.6581    0.0000 C   0  0  0  0  0  0  0  0  0  0  0  0
   -1.3390   -3.1302    0.0000 C   0  0  0  0  0  0  0  0  0  0  0  0
    6.6437   -5.2074    0.0000 C   0  0  0  0  0  0  0  0  0  0  0  0
    5.9284   -5.6194    0.0000 C   0  0  0  0  0  0  0  0  0  0  0  0
    5.4134    0.0343    0.0000 C   0  0  0  0  0  0  0  0  0  0  0  0
  2  6  1  0
  3  7  1  0
  4  1  1  0
  5  2  1  0
  6  8  2  0
  7 17  2  0
  8  9  1  0
  9  4  1  0
 10 11  2  0
 11 16  1  0
 12 10  1  0
 13  1  2  0
 14  1  2  0
 15  2  1  0
 16 21  2  0
 17 18  1  0
 18  9  2  0
 19 12  2  0
 20  1  1  0
 21 28  1  0
 22 27  2  0
 23 15  1  0
 24 12  1  0
 25  4  1  0
 26  5  1  0
 27 23  1  0
 28 23  2  0
 29 10  1  0
 30 11  1  0
 31 26  1  0
 32 20  1  0
 33 31  1  0
 34 32  1  0
 35 36  1  0
 36 30  2  0
 37 33  1  0
 25 34  1  0
  7  6  1  0
  3  5  2  0
 16 22  1  0
 29 35  2  0
M  END
>  <From>  (1) 
www.bindingDB.org

>  <BindingDB Reactant_set_id>  (1) 
50069213

>  <Ligand InChI>  (1) 
InChI=1S/C29H31N3O4S/c1-2-3-10-28-30-26-16-15-23(32-17-6-7-18-37(32,35)36)19-27(26)31(28)20-21-11-13-22(14-12-21)24-8-4-5-9-25(24)29(33)34/h4-5,8-9,11-16,19H,2-3,6-7,10,17-18,20H2,1H3,(H,33,34)

>  <Ligand InChI Key>  (1) 
LLHXOKABAVERBP-UHFFFAOYSA-N

>  <BindingDB MonomerID>  (1) 
50043249

>  <BindingDB Ligand Name>  (1) 
4'-[2-Butyl-6-(1,1-dioxo-1lambda*6*-[1,2]thiazinan-2-yl)-benzoimidazol-1-ylmethyl]-biphenyl-2-carboxylic acid::CHEMBL131839

>  <Target Name>  (1) 
Type-1 angiotensin II receptor B

>  <Target Source Organism According to Curator or DataSource>  (1) 
Rattus

>  <Ki (nM)>  (1) 


>  <IC50 (nM)>  (1) 
 34

>  <Kd (nM)>  (1) 


>  <EC50 (nM)>  (1) 


>  <kon (M-1-s-1)>  (1) 


>  <koff (s-1)>  (1) 


>  <pH>  (1) 


>  <Temp C>  (1) 


>  <Curation/DataSource>  (1) 
ChEMBL

>  <Article DOI>  (1) 
10.1021/jm00077a007

>  <BindingDB Entry DOI>  (1) 
10.7270/Q2V98746

>  <PMID>  (1) 
8258826

>  <PubChem AID>  (1) 


>  <Patent Number>  (1) 


>  <Authors>  (1) 
Ries, UJ; Mihm, G; Narr, B; Hasselbach, KM; Wittneben, H; Entzeroth, M; van Meel, JC; Wienen, W; Hauel, NH

>  <Institution>  (1) 
Dr. Karl Thomae GmbH

>  <Link to Ligand in BindingDB>  (1) 
http://www.bindingdb.org/bind/chemsearch/marvin/MolStructure.jsp?monomerid=50043249

>  <Link to Ligand-Target Pair in BindingDB>  (1) 
http://www.bindingdb.org/jsp/dbsearch/PrimarySearch_ki.jsp?energyterm=kJ/mole&tag=r21&monomerid=50043249&enzyme=Type-1+angiotensin+II+receptor+B&column=ki&startPg=0&Increment=50&submit=Search

>  <Ligand HET ID in PDB>  (1) 


>  <PDB ID(s) for Ligand-Target Complex>  (1) 


>  <PubChem CID of Ligand>  (1) 
10436618

>  <PubChem SID of Ligand>  (1) 
103974718

>  <ChEBI ID of Ligand>  (1) 


>  <ChEMBL ID of Ligand>  (1) 
CHEMBL131839

>  <DrugBank ID of Ligand>  (1) 


>  <IUPHAR_GRAC ID of Ligand>  (1) 


>  <KEGG ID of Ligand>  (1) 


>  <ZINC ID of Ligand>  (1) 
ZINC13732062

>  <Number of Protein Chains in Target (bigger than 1 implies a multichain complex)>  (1) 
1

>  <BindingDB Target Chain Sequence>  (1) 
MTLNSSTEDGIKRIQDDCPKAGRHNYIFVMIPTLYSIIFVVGIFGNSLVVIVIYFYMKLKTVASVFLLNLALADLCFLLTLPLWAVYTAMEYRWPFGNHLCKIASASVSFNLYASVFLLTCLSIDRYLAIVHPMKSRLRRTMLVAKVTCIIIWLMAGLASLPAVIYRNVYFIENTNITVCAFHYESQNSTLPIGLGLTKNILGFVFPFLIILTSYTLIWKALKKAYKIQKNTPRNDDIFRIIMAIVLFFFFSWVPHQIFTFLDVLIQLGIIRDCEIADIVDTAMPITICIAYFNNCLNPLFYGFLGKKFKKYFLQLLKYIPPTAKSHAGLSTKMSTLSYRPSDNMSSSAKKSASFFEVE

>  <PDB ID(s) of Target Chain>  (1) 


>  <UniProt (SwissProt) Recommended Name of Target Chain>  (1) 
Type-1 angiotensin II receptor B

>  <UniProt (SwissProt) Entry Name of Target Chain>  (1) 
AGTRB_RAT

>  <UniProt (SwissProt) Primary ID of Target Chain>  (1) 
P29089

>  <UniProt (SwissProt) Secondary ID(s) of Target Chain>  (1) 


>  <UniProt (SwissProt) Alternative ID(s) of Target Chain>  (1) 


>  <UniProt (TrEMBL) Submitted Name of Target Chain>  (1) 


>  <UniProt (TrEMBL) Entry Name of Target Chain>  (1) 


>  <UniProt (TrEMBL) Primary ID of Target Chain>  (1) 


>  <UniProt (TrEMBL) Secondary ID(s) of Target Chain>  (1) 


>  <UniProt (TrEMBL) Alternative ID(s) of Target Chain>  (1) 


$$$$
