
     RDKit          2D

 31 34  0  0  0  0  0  0  0  0999 V2000
    3.7380   -3.1976    0.0000 N   0  0  0  0  0  0  0  0  0  0  0  0
    3.4820   -2.4067    0.0000 C   0  0  0  0  0  0  0  0  0  0  0  0
    2.3954   -3.1976    0.0000 N   0  0  0  0  0  0  0  0  0  0  0  0
    3.0724   -3.6755    0.0000 C   0  0  0  0  0  0  0  0  0  0  0  0
    2.6514   -2.4124    0.0000 C   0  0  0  0  0  0  0  0  0  0  0  0
    8.0223   -4.4777    0.0000 C   0  0  0  0  0  0  0  0  0  0  0  0
    7.6126   -3.7722    0.0000 C   0  0  0  0  0  0  0  0  0  0  0  0
    7.6126   -5.2060    0.0000 C   0  0  0  0  0  0  0  0  0  0  0  0
    4.3184   -3.7722    0.0000 C   0  0  0  0  0  0  0  0  0  0  0  0
    6.7820   -3.7722    0.0000 C   0  0  0  0  0  0  0  0  0  0  0  0
    3.9657   -1.7410    0.0000 O   0  0  0  0  0  0  0  0  0  0  0  0
    8.0223   -5.9115    0.0000 O   0  0  0  0  0  0  0  0  0  0  0  0
    6.3724   -4.4891    0.0000 C   0  0  0  0  0  0  0  0  0  0  0  0
    6.3666   -3.0553    0.0000 C   0  0  0  0  0  0  0  0  0  0  0  0
    5.1434   -3.7722    0.0000 C   0  0  0  0  0  0  0  0  0  0  0  0
    6.7820   -5.2060    0.0000 O   0  0  0  0  0  0  0  0  0  0  0  0
    3.0610   -4.5061    0.0000 C   0  0  0  0  0  0  0  0  0  0  0  0
    5.5473   -3.0553    0.0000 C   0  0  0  0  0  0  0  0  0  0  0  0
    5.5473   -4.4891    0.0000 C   0  0  0  0  0  0  0  0  0  0  0  0
    2.9928   -1.6614    0.0000 C   0  0  0  0  0  0  0  0  0  0  0  0
    1.8434   -2.4978    0.0000 C   0  0  0  0  0  0  0  0  0  0  0  0
    8.8473   -4.4777    0.0000 C   0  0  0  0  0  0  0  0  0  0  0  0
    8.0110   -3.0553    0.0000 C   0  0  0  0  0  0  0  0  0  0  0  0
    2.3555   -4.9158    0.0000 C   0  0  0  0  0  0  0  0  0  0  0  0
    2.3555   -5.7408    0.0000 C   0  0  0  0  0  0  0  0  0  0  0  0
    1.3655   -1.8321    0.0000 C   0  0  0  0  0  0  0  0  0  0  0  0
    2.5148   -0.9957    0.0000 C   0  0  0  0  0  0  0  0  0  0  0  0
    9.2570   -3.7608    0.0000 C   0  0  0  0  0  0  0  0  0  0  0  0
    8.8416   -3.0440    0.0000 C   0  0  0  0  0  0  0  0  0  0  0  0
    1.6443   -6.1505    0.0000 C   0  0  0  0  0  0  0  0  0  0  0  0
    1.6955   -1.0811    0.0000 C   0  0  0  0  0  0  0  0  0  0  0  0
  2  1  1  0
  3  4  2  0
  4  1  1  0
  5  2  1  0
  6  7  2  0
  7 10  1  0
  8  6  1  0
  9  1  1  0
 10 13  2  0
 11  2  2  0
 12  8  2  0
 13 19  1  0
 14 18  2  0
 15  9  1  0
 16  8  1  0
 17  4  1  0
 18 15  1  0
 19 15  2  0
 20  5  1  0
 21  5  1  0
 22  6  1  0
 23  7  1  0
 24 17  1  0
 25 24  1  0
 26 21  1  0
 27 20  1  0
 28 29  1  0
 29 23  2  0
 30 25  1  0
 31 26  1  0
  3  5  1  0
 14 10  1  0
 27 31  1  0
 22 28  2  0
M  END
>  <From>  (1) 
www.bindingDB.org

>  <BindingDB Reactant_set_id>  (1) 
51428822

>  <Ligand InChI>  (1) 
InChI=1S/C26H30N2O3/c1-2-3-11-23-27-26(16-7-4-8-17-26)25(31)28(23)18-19-12-14-20(15-13-19)21-9-5-6-10-22(21)24(29)30/h5-6,9-10,12-15H,2-4,7-8,11,16-18H2,1H3,(H,29,30)

>  <Ligand InChI Key>  (1) 
MFRBWXHTGUQKIS-UHFFFAOYSA-N

>  <BindingDB MonomerID>  (1) 
50042251

>  <BindingDB Ligand Name>  (1) 
4'-(2-Butyl-4-oxo-1,3-diaza-spiro[4.5]dec-1-en-3-ylmethyl)-biphenyl-2-carboxylic acid::CHEMBL116170

>  <Target Name>  (1) 
Type-1 angiotensin II receptor

>  <Target Source Organism According to Curator or DataSource>  (1) 
Homo sapiens

>  <Ki (nM)>  (1) 


>  <IC50 (nM)>  (1) 
 155

>  <Kd (nM)>  (1) 


>  <EC50 (nM)>  (1) 


>  <kon (M-1-s-1)>  (1) 


>  <koff (s-1)>  (1) 


>  <pH>  (1) 


>  <Temp C>  (1) 


>  <Curation/DataSource>  (1) 
ChEMBL

>  <Article DOI>  (1) 
10.1021/acsmedchemlett.1c00240

>  <BindingDB Entry DOI>  (1) 
10.7270/Q2FJ2MMF

>  <PMID>  (1) 
34413955

>  <PubChem AID>  (1) 


>  <Patent Number>  (1) 


>  <Authors>  (1) 
Hernandez-Olmos, V; Heering, J; Bischoff-Kont, I; Kaps, A; Rajkumar, R; Liu, T; Fürst, R; Steinhilber, D; Proschak, E

>  <Institution>  (1) 
Fraunhofer Institute for Translational Medicine and Phamacology ITMP

>  <Link to Ligand in BindingDB>  (1) 
http://www.bindingdb.org/bind/chemsearch/marvin/MolStructure.jsp?monomerid=50042251

>  <Link to Ligand-Target Pair in BindingDB>  (1) 
http://www.bindingdb.org/jsp/dbsearch/PrimarySearch_ki.jsp?energyterm=kJ/mole&tag=r21&monomerid=50042251&enzyme=Type-1+angiotensin+II+receptor&column=ki&startPg=0&Increment=50&submit=Search

>  <Ligand HET ID in PDB>  (1) 


>  <PDB ID(s) for Ligand-Target Complex>  (1) 


>  <PubChem CID of Ligand>  (1) 
44342039

>  <PubChem SID of Ligand>  (1) 
103973859

>  <ChEBI ID of Ligand>  (1) 


>  <ChEMBL ID of Ligand>  (1) 
CHEMBL116170

>  <DrugBank ID of Ligand>  (1) 


>  <IUPHAR_GRAC ID of Ligand>  (1) 


>  <KEGG ID of Ligand>  (1) 


>  <ZINC ID of Ligand>  (1) 
ZINC13833567

>  <Number of Protein Chains in Target (bigger than 1 implies a multichain complex)>  (1) 
1

>  <BindingDB Target Chain Sequence>  (1) 
MILNSSTEDGIKRIQDDCPKAGRHNYIFVMIPTLYSIIFVVGIFGNSLVVIVIYFYMKLKTVASVFLLNLALADLCFLLTLPLWAVYTAMEYRWPFGNYLCKIASASVSFNLYASVFLLTCLSIDRYLAIVHPMKSRLRRTMLVAKVTCIIIWLLAGLASLPAIIHRNVFFIENTNITVCAFHYESQNSTLPIGLGLTKNILGFLFPFLIILTSYTLIWKALKKAYEIQKNKPRNDDIFKIIMAIVLFFFFSWIPHQIFTFLDVLIQLGIIRDCRIADIVDTAMPITICIAYFNNCLNPLFYGFLGKKFKRYFLQLLKYIPPKAKSHSNLSTKMSTLSYRPSDNVSSSTKKPAPCFEVE

>  <PDB ID(s) of Target Chain>  (1) 
6DO1,6OS0,6OS1,6OS2

>  <UniProt (SwissProt) Recommended Name of Target Chain>  (1) 
Type-1 angiotensin II receptor

>  <UniProt (SwissProt) Entry Name of Target Chain>  (1) 
AGTR1_HUMAN

>  <UniProt (SwissProt) Primary ID of Target Chain>  (1) 
P30556

>  <UniProt (SwissProt) Secondary ID(s) of Target Chain>  (1) 
Q13725 Q8TBK4

>  <UniProt (SwissProt) Alternative ID(s) of Target Chain>  (1) 


>  <UniProt (TrEMBL) Submitted Name of Target Chain>  (1) 


>  <UniProt (TrEMBL) Entry Name of Target Chain>  (1) 


>  <UniProt (TrEMBL) Primary ID of Target Chain>  (1) 


>  <UniProt (TrEMBL) Secondary ID(s) of Target Chain>  (1) 


>  <UniProt (TrEMBL) Alternative ID(s) of Target Chain>  (1) 


$$$$
