
     RDKit          2D

 42 47  0  0  0  0  0  0  0  0999 V2000
    4.0500   -3.3167    0.0000 N   0  0  0  0  0  0  0  0  0  0  0  0
    7.6708   -4.7292    0.0000 N   0  0  0  0  0  0  0  0  0  0  0  0
    6.9667   -4.3125    0.0000 N   0  0  0  0  0  0  0  0  0  0  0  0
    4.0500   -1.9792    0.0000 N   0  0  0  0  0  0  0  0  0  0  0  0
    3.5625   -2.6500    0.0000 C   0  0  0  0  0  0  0  0  0  0  0  0
    4.8375   -3.0667    0.0000 C   0  0  0  0  0  0  0  0  0  0  0  0
    4.7792   -7.5583    0.0000 C   0  0  0  0  0  0  0  0  0  0  0  0
    4.1833   -6.9917    0.0000 N   0  0  0  0  0  0  0  0  0  0  0  0
    3.4500   -7.3708    0.0000 N   0  0  0  0  0  0  0  0  0  0  0  0
    7.6583   -5.5583    0.0000 C   0  0  0  0  0  0  0  0  0  0  0  0
    4.4125   -8.3042    0.0000 N   0  0  0  0  0  0  0  0  0  0  0  0
    4.8417   -2.2417    0.0000 C   0  0  0  0  0  0  0  0  0  0  0  0
    3.5875   -8.1833    0.0000 N   0  0  0  0  0  0  0  0  0  0  0  0
    8.3667   -5.9833    0.0000 C   0  0  0  0  0  0  0  0  0  0  0  0
    8.3917   -4.3292    0.0000 C   0  0  0  0  0  0  0  0  0  0  0  0
    6.9792   -3.4792    0.0000 C   0  0  0  0  0  0  0  0  0  0  0  0
    5.5917   -7.4208    0.0000 C   0  0  0  0  0  0  0  0  0  0  0  0
    5.5542   -3.4792    0.0000 C   0  0  0  0  0  0  0  0  0  0  0  0
    5.8917   -6.6542    0.0000 C   0  0  0  0  0  0  0  0  0  0  0  0
    6.2667   -3.0667    0.0000 C   0  0  0  0  0  0  0  0  0  0  0  0
    3.7875   -4.1000    0.0000 C   0  0  0  0  0  0  0  0  0  0  0  0
    8.3542   -6.8083    0.0000 N   0  0  0  0  0  0  0  0  0  0  0  0
    5.3750   -6.0083    0.0000 C   0  0  0  0  0  0  0  0  0  0  0  0
    9.0917   -5.5833    0.0000 O   0  0  0  0  0  0  0  0  0  0  0  0
    8.4042   -3.5042    0.0000 C   0  0  0  0  0  0  0  0  0  0  0  0
    5.5542   -1.8292    0.0000 C   0  0  0  0  0  0  0  0  0  0  0  0
    9.1042   -4.7542    0.0000 O   0  0  0  0  0  0  0  0  0  0  0  0
    7.6958   -3.0792    0.0000 C   0  0  0  0  0  0  0  0  0  0  0  0
    6.2667   -2.2417    0.0000 C   0  0  0  0  0  0  0  0  0  0  0  0
    4.5542   -6.1333    0.0000 C   0  0  0  0  0  0  0  0  0  0  0  0
    5.6750   -5.2458    0.0000 C   0  0  0  0  0  0  0  0  0  0  0  0
    4.3417   -4.7167    0.0000 C   0  0  0  0  0  0  0  0  0  0  0  0
    2.7458   -2.6417    0.0000 C   0  0  0  0  0  0  0  0  0  0  0  0
    4.0375   -5.4917    0.0000 C   0  0  0  0  0  0  0  0  0  0  0  0
    5.1625   -4.5917    0.0000 C   0  0  0  0  0  0  0  0  0  0  0  0
    6.1042   -8.0667    0.0000 C   0  0  0  0  0  0  0  0  0  0  0  0
    6.7042   -6.5292    0.0000 C   0  0  0  0  0  0  0  0  0  0  0  0
    9.0667   -7.2333    0.0000 C   0  0  0  0  0  0  0  0  0  0  0  0
    7.6333   -7.2083    0.0000 C   0  0  0  0  0  0  0  0  0  0  0  0
    2.3375   -1.9292    0.0000 C   0  0  0  0  0  0  0  0  0  0  0  0
    6.9250   -7.9333    0.0000 C   0  0  0  0  0  0  0  0  0  0  0  0
    7.2125   -7.1708    0.0000 C   0  0  0  0  0  0  0  0  0  0  0  0
  2  3  1  0
  3 16  2  0
  4  5  2  0
  5  1  1  0
  6  1  1  0
  7 17  1  0
  8  7  1  0
  9  8  2  0
 10  2  1  0
 11  7  2  0
 12  6  2  0
 13 11  1  0
 14 10  1  0
 15 25  1  0
 16 20  1  0
 17 19  1  0
 18  6  1  0
 19 23  1  0
 20 18  2  0
 21  1  1  0
 22 14  1  0
 23 31  2  0
 24 14  2  0
 25 28  1  0
 26 12  1  0
 27 15  2  0
 28 16  1  0
 29 20  1  0
 30 34  2  0
 31 35  1  0
 32 21  1  0
 33  5  1  0
 34 32  1  0
 35 32  2  0
 36 17  2  0
 37 19  2  0
 38 22  1  0
 39 22  1  0
 40 33  1  0
 41 42  2  0
 42 37  1  0
  4 12  1  0
 23 30  1  0
 26 29  2  0
  2 15  1  0
 36 41  1  0
  9 13  1  0
M  CHG  1  13  -1
M  END
>  <From>  (1) 
www.bindingDB.org

>  <BindingDB Reactant_set_id>  (1) 
50983606

>  <Ligand InChI>  (1) 
InChI=1S/C31H30N9O2/c1-4-28-32-26-14-13-22(25-15-16-29(41)40(35-25)19-30(42)38(2)3)17-27(26)39(28)18-20-9-11-21(12-10-20)23-7-5-6-8-24(23)31-33-36-37-34-31/h5-14,17H,4,15-16,18-19H2,1-3H3/q-1

>  <Ligand InChI Key>  (1) 
LWGZNRCEWIFELS-UHFFFAOYSA-N

>  <BindingDB MonomerID>  (1) 
50403243

>  <BindingDB Ligand Name>  (1) 
CHEMBL2079789

>  <Target Name>  (1) 
Type-1 angiotensin II receptor

>  <Target Source Organism According to Curator or DataSource>  (1) 
Oryctolagus cuniculus

>  <Ki (nM)>  (1) 


>  <IC50 (nM)>  (1) 
 3

>  <Kd (nM)>  (1) 


>  <EC50 (nM)>  (1) 


>  <kon (M-1-s-1)>  (1) 


>  <koff (s-1)>  (1) 


>  <pH>  (1) 


>  <Temp C>  (1) 


>  <Curation/DataSource>  (1) 
ChEMBL

>  <Article DOI>  (1) 
10.1016/S0960-894X(01)80348-6

>  <BindingDB Entry DOI>  (1) 
10.7270/Q2G44QRD

>  <PMID>  (1) 


>  <PubChem AID>  (1) 


>  <Patent Number>  (1) 


>  <Authors>  (1) 
Dorsch, D; Mederski, WW; Beier, N; Lues, I; Minck, K; Schelling, P

>  <Institution>  (1) 
TBA

>  <Link to Ligand in BindingDB>  (1) 
http://www.bindingdb.org/bind/chemsearch/marvin/MolStructure.jsp?monomerid=50403243

>  <Link to Ligand-Target Pair in BindingDB>  (1) 
http://www.bindingdb.org/jsp/dbsearch/PrimarySearch_ki.jsp?energyterm=kJ/mole&tag=r21&monomerid=50403243&enzyme=Type-1+angiotensin+II+receptor&column=ki&startPg=0&Increment=50&submit=Search

>  <Ligand HET ID in PDB>  (1) 


>  <PDB ID(s) for Ligand-Target Complex>  (1) 


>  <PubChem CID of Ligand>  (1) 
91928452

>  <PubChem SID of Ligand>  (1) 
163352267

>  <ChEBI ID of Ligand>  (1) 


>  <ChEMBL ID of Ligand>  (1) 
CHEMBL2079789

>  <DrugBank ID of Ligand>  (1) 


>  <IUPHAR_GRAC ID of Ligand>  (1) 


>  <KEGG ID of Ligand>  (1) 


>  <ZINC ID of Ligand>  (1) 
ZINC28755043

>  <Number of Protein Chains in Target (bigger than 1 implies a multichain complex)>  (1) 
1

>  <BindingDB Target Chain Sequence>  (1) 
MMLNSSTEDGIKRIQDDCPKAGRHNYIFVMIPTLYSIIFVVGIFGNSLAVIVIYFYMKLKTVASVFLLNLALADLCFLLTLPLWAVYTAMEYRWPFGNYLCKIASASVSFNLYASVFLLTCLSIDRYLAIVHPMKSRLRRTMLVAKVTCIIIWLLAGLASLPAIIHRNVFFIENTNITVCAFHYESQNSTLPIGLGLTKNILGFLFPFLIILTSYTLIWKALKKAYEIQKNKPRNDDIFKIIMAIVLFFFFSWVPHQIFTFLDVLIQLGVIHDCRIADIVDTAMPITICIAYFNNCLNPLFYGFLGKKFKKYFLQLLKYIPPKAKSHSNLSTKMSTLSYRPSDNVSSSSKKPVPCFEVE

>  <PDB ID(s) of Target Chain>  (1) 
6DO1,6OS0,6OS1,6OS2

>  <UniProt (SwissProt) Recommended Name of Target Chain>  (1) 
Type-1 angiotensin II receptor

>  <UniProt (SwissProt) Entry Name of Target Chain>  (1) 
AGTR1_RABIT

>  <UniProt (SwissProt) Primary ID of Target Chain>  (1) 
P34976

>  <UniProt (SwissProt) Secondary ID(s) of Target Chain>  (1) 


>  <UniProt (SwissProt) Alternative ID(s) of Target Chain>  (1) 


>  <UniProt (TrEMBL) Submitted Name of Target Chain>  (1) 


>  <UniProt (TrEMBL) Entry Name of Target Chain>  (1) 


>  <UniProt (TrEMBL) Primary ID of Target Chain>  (1) 


>  <UniProt (TrEMBL) Secondary ID(s) of Target Chain>  (1) 


>  <UniProt (TrEMBL) Alternative ID(s) of Target Chain>  (1) 


$$$$
