
     RDKit          2D

 31 35  0  0  0  0  0  0  0  0999 V2000
    1.0564   -0.8893    0.0000 N   0  0  0  0  0  0  0  0  0  0  0  0
    1.0564    0.4467    0.0000 N   0  0  0  0  0  0  0  0  0  0  0  0
    0.2673   -0.6305    0.0000 C   0  0  0  0  0  0  0  0  0  0  0  0
    1.5407   -0.2171    0.0000 C   0  0  0  0  0  0  0  0  0  0  0  0
    0.2673    0.1962    0.0000 C   0  0  0  0  0  0  0  0  0  0  0  0
    4.8392   -0.9812    0.0000 C   0  0  0  0  0  0  0  0  0  0  0  0
    4.0877   -0.6430    0.0000 N   0  0  0  0  0  0  0  0  0  0  0  0
    4.1753    0.1837    0.0000 N   0  0  0  0  0  0  0  0  0  0  0  0
    5.3903   -0.3675    0.0000 N   0  0  0  0  0  0  0  0  0  0  0  0
    4.9895    0.3465    0.0000 N   0  0  0  0  0  0  0  0  0  0  0  0
    5.0897   -1.7662    0.0000 C   0  0  0  0  0  0  0  0  0  0  0  0
    4.5386   -2.3799    0.0000 C   0  0  0  0  0  0  0  0  0  0  0  0
   -0.4467   -1.0439    0.0000 N   0  0  0  0  0  0  0  0  0  0  0  0
    1.3069   -1.6785    0.0000 C   0  0  0  0  0  0  0  0  0  0  0  0
    3.7327   -2.2046    0.0000 C   0  0  0  0  0  0  0  0  0  0  0  0
   -0.4467    0.6096    0.0000 C   0  0  0  0  0  0  0  0  0  0  0  0
    3.4739   -1.4154    0.0000 C   0  0  0  0  0  0  0  0  0  0  0  0
    3.1733   -2.8100    0.0000 C   0  0  0  0  0  0  0  0  0  0  0  0
    2.1169   -1.8538    0.0000 C   0  0  0  0  0  0  0  0  0  0  0  0
    2.3674   -0.2171    0.0000 C   0  0  0  0  0  0  0  0  0  0  0  0
   -1.1607   -0.6305    0.0000 C   0  0  0  0  0  0  0  0  0  0  0  0
    2.6722   -1.2401    0.0000 C   0  0  0  0  0  0  0  0  0  0  0  0
    2.3716   -2.6346    0.0000 C   0  0  0  0  0  0  0  0  0  0  0  0
    5.8997   -1.9415    0.0000 C   0  0  0  0  0  0  0  0  0  0  0  0
    4.7891   -3.1607    0.0000 C   0  0  0  0  0  0  0  0  0  0  0  0
   -1.1607    0.1962    0.0000 C   0  0  0  0  0  0  0  0  0  0  0  0
   -0.4467    1.4363    0.0000 C   0  0  0  0  0  0  0  0  0  0  0  0
    2.7808    0.4843    0.0000 C   0  0  0  0  0  0  0  0  0  0  0  0
    6.1544   -2.7306    0.0000 C   0  0  0  0  0  0  0  0  0  0  0  0
    5.5991   -3.3361    0.0000 C   0  0  0  0  0  0  0  0  0  0  0  0
    3.6117    0.4843    0.0000 C   0  0  0  0  0  0  0  0  0  0  0  0
  2  4  2  0
  3  1  1  0
  4  1  1  0
  5  3  2  0
  6 11  1  0
  7  6  1  0
  8  7  1  0
  9  6  2  0
 10  9  1  0
 11 12  1  0
 12 15  1  0
 13  3  1  0
 14  1  1  0
 15 18  2  0
 16  5  1  0
 17 22  2  0
 18 23  1  0
 19 14  1  0
 20  4  1  0
 21 13  2  0
 22 19  1  0
 23 19  2  0
 24 11  2  0
 25 12  2  0
 26 21  1  0
 27 16  1  0
 28 20  1  0
 29 30  2  0
 30 25  1  0
 31 28  1  0
  2  5  1  0
 15 17  1  0
 16 26  2  0
 24 29  1  0
 10  8  2  0
M  END
>  <From>  (1) 
www.bindingDB.org

>  <BindingDB Reactant_set_id>  (1) 
50002519

>  <Ligand InChI>  (1) 
InChI=1S/C24H23N7/c1-3-6-21-26-22-16(2)13-14-25-24(22)31(21)15-17-9-11-18(12-10-17)19-7-4-5-8-20(19)23-27-29-30-28-23/h4-5,7-14H,3,6,15H2,1-2H3,(H,27,28,29,30)

>  <Ligand InChI Key>  (1) 
CYUMNDVYHILLEX-UHFFFAOYSA-N

>  <BindingDB MonomerID>  (1) 
50009719

>  <BindingDB Ligand Name>  (1) 
7-Methyl-2-propyl-3-[2'-(2H-tetrazol-5-yl)-biphenyl-4-ylmethyl]-3H-imidazo[4,5-b]pyridine::CHEMBL296725::L-158338

>  <Target Name>  (1) 
Type-1 angiotensin II receptor

>  <Target Source Organism According to Curator or DataSource>  (1) 
Oryctolagus cuniculus

>  <Ki (nM)>  (1) 


>  <IC50 (nM)>  (1) 
 1

>  <Kd (nM)>  (1) 


>  <EC50 (nM)>  (1) 


>  <kon (M-1-s-1)>  (1) 


>  <koff (s-1)>  (1) 


>  <pH>  (1) 


>  <Temp C>  (1) 


>  <Curation/DataSource>  (1) 
ChEMBL

>  <Article DOI>  (1) 
10.1016/S0960-894X(00)80044-X

>  <BindingDB Entry DOI>  (1) 
10.7270/Q2CF9Q12

>  <PMID>  (1) 


>  <PubChem AID>  (1) 


>  <Patent Number>  (1) 


>  <Authors>  (1) 
Mantlo, N; Chang, RS; Siegl, P

>  <Institution>  (1) 
TBA

>  <Link to Ligand in BindingDB>  (1) 
http://www.bindingdb.org/bind/chemsearch/marvin/MolStructure.jsp?monomerid=50009719

>  <Link to Ligand-Target Pair in BindingDB>  (1) 
http://www.bindingdb.org/jsp/dbsearch/PrimarySearch_ki.jsp?energyterm=kJ/mole&tag=r21&monomerid=50009719&enzyme=Type-1+angiotensin+II+receptor&column=ki&startPg=0&Increment=50&submit=Search

>  <Ligand HET ID in PDB>  (1) 


>  <PDB ID(s) for Ligand-Target Complex>  (1) 


>  <PubChem CID of Ligand>  (1) 
3036053

>  <PubChem SID of Ligand>  (1) 
103922701

>  <ChEBI ID of Ligand>  (1) 


>  <ChEMBL ID of Ligand>  (1) 
CHEMBL296725

>  <DrugBank ID of Ligand>  (1) 


>  <IUPHAR_GRAC ID of Ligand>  (1) 


>  <KEGG ID of Ligand>  (1) 


>  <ZINC ID of Ligand>  (1) 
ZINC03783675

>  <Number of Protein Chains in Target (bigger than 1 implies a multichain complex)>  (1) 
1

>  <BindingDB Target Chain Sequence>  (1) 
MMLNSSTEDGIKRIQDDCPKAGRHNYIFVMIPTLYSIIFVVGIFGNSLAVIVIYFYMKLKTVASVFLLNLALADLCFLLTLPLWAVYTAMEYRWPFGNYLCKIASASVSFNLYASVFLLTCLSIDRYLAIVHPMKSRLRRTMLVAKVTCIIIWLLAGLASLPAIIHRNVFFIENTNITVCAFHYESQNSTLPIGLGLTKNILGFLFPFLIILTSYTLIWKALKKAYEIQKNKPRNDDIFKIIMAIVLFFFFSWVPHQIFTFLDVLIQLGVIHDCRIADIVDTAMPITICIAYFNNCLNPLFYGFLGKKFKKYFLQLLKYIPPKAKSHSNLSTKMSTLSYRPSDNVSSSSKKPVPCFEVE

>  <PDB ID(s) of Target Chain>  (1) 
6DO1,6OS0,6OS1,6OS2

>  <UniProt (SwissProt) Recommended Name of Target Chain>  (1) 
Type-1 angiotensin II receptor

>  <UniProt (SwissProt) Entry Name of Target Chain>  (1) 
AGTR1_RABIT

>  <UniProt (SwissProt) Primary ID of Target Chain>  (1) 
P34976

>  <UniProt (SwissProt) Secondary ID(s) of Target Chain>  (1) 


>  <UniProt (SwissProt) Alternative ID(s) of Target Chain>  (1) 


>  <UniProt (TrEMBL) Submitted Name of Target Chain>  (1) 


>  <UniProt (TrEMBL) Entry Name of Target Chain>  (1) 


>  <UniProt (TrEMBL) Primary ID of Target Chain>  (1) 


>  <UniProt (TrEMBL) Secondary ID(s) of Target Chain>  (1) 


>  <UniProt (TrEMBL) Alternative ID(s) of Target Chain>  (1) 


$$$$
