
     RDKit          2D

 33 37  0  0  0  0  0  0  0  0999 V2000
   -1.0998   -8.1337    0.0000 N   0  0  0  0  0  0  0  0  0  0  0  0
   -1.5923   -7.4635    0.0000 C   0  0  0  0  0  0  0  0  0  0  0  0
   -1.1112   -6.7934    0.0000 N   0  0  0  0  0  0  0  0  0  0  0  0
   -0.3093   -7.8759    0.0000 C   0  0  0  0  0  0  0  0  0  0  0  0
    2.1995  -11.2783    0.0000 C   0  0  0  0  0  0  0  0  0  0  0  0
    0.4010   -8.2884    0.0000 C   0  0  0  0  0  0  0  0  0  0  0  0
    2.1366   -9.9380    0.0000 N   0  0  0  0  0  0  0  0  0  0  0  0
    1.6840  -10.6253    0.0000 N   0  0  0  0  0  0  0  0  0  0  0  0
    2.9270  -10.1614    0.0000 N   0  0  0  0  0  0  0  0  0  0  0  0
   -0.3207   -7.0511    0.0000 C   0  0  0  0  0  0  0  0  0  0  0  0
    2.9614  -10.9862    0.0000 N   0  0  0  0  0  0  0  0  0  0  0  0
    1.9761  -12.0688    0.0000 C   0  0  0  0  0  0  0  0  0  0  0  0
    0.4182   -8.9871    0.0000 C   0  0  0  0  0  0  0  0  0  0  0  0
    1.1743  -12.2750    0.0000 C   0  0  0  0  0  0  0  0  0  0  0  0
   -1.1169   -9.9036    0.0000 C   0  0  0  0  0  0  0  0  0  0  0  0
    0.6072  -11.6850    0.0000 C   0  0  0  0  0  0  0  0  0  0  0  0
   -2.4171   -7.4749    0.0000 N   0  0  0  0  0  0  0  0  0  0  0  0
   -0.2176   -9.3709    0.0000 O   0  0  0  0  0  0  0  0  0  0  0  0
    0.9107  -10.9518    0.0000 C   0  0  0  0  0  0  0  0  0  0  0  0
   -0.2004  -11.8798    0.0000 C   0  0  0  0  0  0  0  0  0  0  0  0
   -0.5441  -10.4993    0.0000 C   0  0  0  0  0  0  0  0  0  0  0  0
    1.1227   -9.2621    0.0000 O   0  0  0  0  0  0  0  0  0  0  0  0
    1.1169   -7.8759    0.0000 C   0  0  0  0  0  0  0  0  0  0  0  0
    0.2578  -10.2989    0.0000 C   0  0  0  0  0  0  0  0  0  0  0  0
   -0.7675  -11.2955    0.0000 C   0  0  0  0  0  0  0  0  0  0  0  0
    0.4010   -6.6387    0.0000 C   0  0  0  0  0  0  0  0  0  0  0  0
    2.5490  -12.6530    0.0000 C   0  0  0  0  0  0  0  0  0  0  0  0
    0.9509  -13.0654    0.0000 C   0  0  0  0  0  0  0  0  0  0  0  0
    1.1169   -7.0511    0.0000 C   0  0  0  0  0  0  0  0  0  0  0  0
   -2.8295   -8.1852    0.0000 C   0  0  0  0  0  0  0  0  0  0  0  0
    1.5294  -13.6611    0.0000 C   0  0  0  0  0  0  0  0  0  0  0  0
    2.3256  -13.4607    0.0000 C   0  0  0  0  0  0  0  0  0  0  0  0
   -3.6544   -8.1681    0.0000 C   0  0  0  0  0  0  0  0  0  0  0  0
  2  1  1  0
  3  2  2  0
  4  1  1  0
  5 12  1  0
  6  4  2  0
  7  8  1  0
  8  5  2  0
  9 11  1  0
 10  4  1  0
 11  5  1  0
 12 14  1  0
 13  6  1  0
 14 16  1  0
 15  1  1  0
 16 20  2  0
 17  2  1  0
 18 13  2  0
 19 24  2  0
 20 25  1  0
 21 15  1  0
 22 13  1  0
 23  6  1  0
 24 21  1  0
 25 21  2  0
 26 10  2  0
 27 12  2  0
 28 14  2  0
 29 26  1  0
 30 17  1  0
 31 28  1  0
 32 31  2  0
 33 30  1  0
 10  3  1  0
 16 19  1  0
 23 29  2  0
 32 27  1  0
  9  7  2  0
M  END
>  <From>  (1) 
www.bindingDB.org

>  <BindingDB Reactant_set_id>  (1) 
50764813

>  <Ligand InChI>  (1) 
InChI=1S/C24H21N7O2/c1-2-25-24-26-20-9-5-8-19(23(32)33)21(20)31(24)14-15-10-12-16(13-11-15)17-6-3-4-7-18(17)22-27-29-30-28-22/h3-13H,2,14H2,1H3,(H,25,26)(H,32,33)(H,27,28,29,30)

>  <Ligand InChI Key>  (1) 
APMNCEGMCPPDAT-UHFFFAOYSA-N

>  <BindingDB MonomerID>  (1) 
50044414

>  <BindingDB Ligand Name>  (1) 
2-Ethylamino-3-[2'-(1H-tetrazol-5-yl)-biphenyl-4-ylmethyl]-3H-benzoimidazole-4-carboxylic acid::CHEMBL71410

>  <Target Name>  (1) 
Type-1 angiotensin II receptor

>  <Target Source Organism According to Curator or DataSource>  (1) 
Bos taurus

>  <Ki (nM)>  (1) 


>  <IC50 (nM)>  (1) 
 62

>  <Kd (nM)>  (1) 


>  <EC50 (nM)>  (1) 


>  <kon (M-1-s-1)>  (1) 


>  <koff (s-1)>  (1) 


>  <pH>  (1) 


>  <Temp C>  (1) 


>  <Curation/DataSource>  (1) 
ChEMBL

>  <Article DOI>  (1) 
10.1021/jm00067a016

>  <BindingDB Entry DOI>  (1) 
10.7270/Q20Z73X8

>  <PMID>  (1) 
8340921

>  <PubChem AID>  (1) 


>  <Patent Number>  (1) 


>  <Authors>  (1) 
Kubo, K; Kohara, Y; Imamiya, E; Sugiura, Y; Inada, Y; Furukawa, Y; Nishikawa, K; Naka, T

>  <Institution>  (1) 
Takeda Chemical Industries, Ltd

>  <Link to Ligand in BindingDB>  (1) 
http://www.bindingdb.org/bind/chemsearch/marvin/MolStructure.jsp?monomerid=50044414

>  <Link to Ligand-Target Pair in BindingDB>  (1) 
http://www.bindingdb.org/jsp/dbsearch/PrimarySearch_ki.jsp?energyterm=kJ/mole&tag=r21&monomerid=50044414&enzyme=Type-1+angiotensin+II+receptor&column=ki&startPg=0&Increment=50&submit=Search

>  <Ligand HET ID in PDB>  (1) 


>  <PDB ID(s) for Ligand-Target Complex>  (1) 


>  <PubChem CID of Ligand>  (1) 
15654703

>  <PubChem SID of Ligand>  (1) 
103975668

>  <ChEBI ID of Ligand>  (1) 


>  <ChEMBL ID of Ligand>  (1) 
CHEMBL71410

>  <DrugBank ID of Ligand>  (1) 


>  <IUPHAR_GRAC ID of Ligand>  (1) 


>  <KEGG ID of Ligand>  (1) 


>  <ZINC ID of Ligand>  (1) 
ZINC26289549

>  <Number of Protein Chains in Target (bigger than 1 implies a multichain complex)>  (1) 
1

>  <BindingDB Target Chain Sequence>  (1) 
MILNSSTEDGIKRIQDDCPKAGRHNYIFIMIPTLYSIIFVVGIFGNSLVVIVIYFYMKLKTVASVFLLNLALADLCFLLTLPLWAVYTAMEYRWPFGNYLCKIASASVSFNLYASVFLLTCLSIDRYLAIVHPMKSRLRRTMLVAKVTCIIIWLLAGLASLPTIIHRNVFFIENTNITVCAFHYESQNSTLPVGLGLTKNILGFLFPFLIILTSYTLIWKTLKKAYEIQKNKPRKDDIFKIILAIVLFFFFSWVPHQIFTFMDVLIQLGLIRDCKIEDIVDTAMPITICLAYFNNCLNPLFYGFLGKKFKKYFLQLLKYIPPKAKSHSNLSTKMSTLSYRPSENGNSSTKKPAPCIEVE

>  <PDB ID(s) of Target Chain>  (1) 


>  <UniProt (SwissProt) Recommended Name of Target Chain>  (1) 
Type-1 angiotensin II receptor

>  <UniProt (SwissProt) Entry Name of Target Chain>  (1) 
AGTR1_BOVIN

>  <UniProt (SwissProt) Primary ID of Target Chain>  (1) 
P25104

>  <UniProt (SwissProt) Secondary ID(s) of Target Chain>  (1) 


>  <UniProt (SwissProt) Alternative ID(s) of Target Chain>  (1) 


>  <UniProt (TrEMBL) Submitted Name of Target Chain>  (1) 


>  <UniProt (TrEMBL) Entry Name of Target Chain>  (1) 


>  <UniProt (TrEMBL) Primary ID of Target Chain>  (1) 


>  <UniProt (TrEMBL) Secondary ID(s) of Target Chain>  (1) 


>  <UniProt (TrEMBL) Alternative ID(s) of Target Chain>  (1) 


$$$$
