
     RDKit          2D

 45 48  0  0  0  0  0  0  0  0999 V2000
    8.8224   -2.9728    0.0000 S   0  0  0  0  0  0  0  0  0  0  0  0
    4.5386   -2.9686    0.0000 N   0  0  0  0  0  0  0  0  0  0  0  0
    3.8121   -2.5470    0.0000 C   0  0  0  0  0  0  0  0  0  0  0  0
    3.0981   -2.9686    0.0000 C   0  0  0  0  0  0  0  0  0  0  0  0
    4.5386   -3.7996    0.0000 C   0  0  0  0  0  0  0  0  0  0  0  0
    3.8121   -4.2129    0.0000 N   0  0  0  0  0  0  0  0  0  0  0  0
    8.8182   -2.1461    0.0000 N   0  0  0  0  0  0  0  0  0  0  0  0
    3.0939   -3.7996    0.0000 C   0  0  0  0  0  0  0  0  0  0  0  0
    8.8224   -3.7996    0.0000 C   0  0  0  0  0  0  0  0  0  0  0  0
    9.5364   -1.7328    0.0000 C   0  0  0  0  0  0  0  0  0  0  0  0
    8.1085   -4.2129    0.0000 C   0  0  0  0  0  0  0  0  0  0  0  0
    9.6492   -2.9728    0.0000 O   0  0  0  0  0  0  0  0  0  0  0  0
    7.9957   -2.9728    0.0000 O   0  0  0  0  0  0  0  0  0  0  0  0
    5.2526   -2.5595    0.0000 C   0  0  0  0  0  0  0  0  0  0  0  0
    2.3799   -2.5553    0.0000 C   0  0  0  0  0  0  0  0  0  0  0  0
    3.8121   -1.7203    0.0000 O   0  0  0  0  0  0  0  0  0  0  0  0
    0.2297   -2.9728    0.0000 C   0  0  0  0  0  0  0  0  0  0  0  0
    0.9520   -2.5595    0.0000 N   0  0  0  0  0  0  0  0  0  0  0  0
    7.3945   -3.7996    0.0000 C   0  0  0  0  0  0  0  0  0  0  0  0
    1.6659   -2.9686    0.0000 C   0  0  0  0  0  0  0  0  0  0  0  0
   10.2504   -2.1461    0.0000 O   0  0  0  0  0  0  0  0  0  0  0  0
    2.3799   -4.2129    0.0000 C   0  0  0  0  0  0  0  0  0  0  0  0
    0.2297   -3.7996    0.0000 O   0  0  0  0  0  0  0  0  0  0  0  0
    7.3945   -2.9728    0.0000 C   0  0  0  0  0  0  0  0  0  0  0  0
    6.6763   -4.2129    0.0000 C   0  0  0  0  0  0  0  0  0  0  0  0
    5.9665   -2.9728    0.0000 C   0  0  0  0  0  0  0  0  0  0  0  0
    9.5322   -0.9061    0.0000 O   0  0  0  0  0  0  0  0  0  0  0  0
    1.6659   -3.7996    0.0000 C   0  0  0  0  0  0  0  0  0  0  0  0
    5.2526   -4.2212    0.0000 C   0  0  0  0  0  0  0  0  0  0  0  0
    6.6805   -2.5595    0.0000 C   0  0  0  0  0  0  0  0  0  0  0  0
    5.9623   -3.7996    0.0000 C   0  0  0  0  0  0  0  0  0  0  0  0
    9.5364   -4.2129    0.0000 C   0  0  0  0  0  0  0  0  0  0  0  0
    8.1085   -5.0396    0.0000 C   0  0  0  0  0  0  0  0  0  0  0  0
   -0.4843   -2.5595    0.0000 C   0  0  0  0  0  0  0  0  0  0  0  0
   10.2504   -0.4927    0.0000 C   0  0  0  0  0  0  0  0  0  0  0  0
    5.2526   -5.0479    0.0000 C   0  0  0  0  0  0  0  0  0  0  0  0
   -1.1983   -2.9728    0.0000 C   0  0  0  0  0  0  0  0  0  0  0  0
   10.2504    0.3340    0.0000 C   0  0  0  0  0  0  0  0  0  0  0  0
   10.9644    0.7473    0.0000 C   0  0  0  0  0  0  0  0  0  0  0  0
   -1.9123   -2.5595    0.0000 C   0  0  0  0  0  0  0  0  0  0  0  0
    8.8224   -5.4530    0.0000 C   0  0  0  0  0  0  0  0  0  0  0  0
    9.5364   -5.0396    0.0000 C   0  0  0  0  0  0  0  0  0  0  0  0
    5.9665   -5.4613    0.0000 C   0  0  0  0  0  0  0  0  0  0  0  0
   10.9644    1.5741    0.0000 C   0  0  0  0  0  0  0  0  0  0  0  0
   -2.6304   -2.9728    0.0000 C   0  0  0  0  0  0  0  0  0  0  0  0
  2 14  1  0
  3  2  1  0
  4  3  1  0
  5  2  1  0
  6  5  2  0
  7  1  1  0
  8  6  1  0
  9  1  1  0
 10  7  1  0
 11  9  2  0
 12  1  2  0
 13  1  2  0
 14 26  1  0
 15  4  2  0
 16  3  2  0
 17 18  1  0
 18 20  1  0
 19 11  1  0
 20 15  1  0
 21 10  2  0
 22  8  2  0
 23 17  2  0
 24 19  2  0
 25 19  1  0
 26 31  1  0
 27 10  1  0
 28 22  1  0
 29  5  1  0
 30 24  1  0
 31 25  2  0
 32  9  1  0
 33 11  1  0
 34 17  1  0
 35 27  1  0
 36 29  1  0
 37 34  1  0
 38 35  1  0
 39 38  1  0
 40 37  1  0
 41 42  1  0
 42 32  2  0
 43 36  1  0
 44 39  1  0
 45 40  1  0
 33 41  2  0
 30 26  2  0
  4  8  1  0
 20 28  2  0
M  END
>  <From>  (1) 
www.bindingDB.org

>  <BindingDB Reactant_set_id>  (1) 
50002785

>  <Ligand InChI>  (1) 
InChI=1S/C34H40N4O6S/c1-4-7-14-32(39)35-26-19-20-29-28(22-26)33(40)38(31(36-29)11-6-3)23-24-15-17-25(18-16-24)27-12-9-10-13-30(27)45(42,43)37-34(41)44-21-8-5-2/h9-10,12-13,15-20,22H,4-8,11,14,21,23H2,1-3H3,(H,35,39)(H,37,41)

>  <Ligand InChI Key>  (1) 
ANLRWKBJZGWBER-UHFFFAOYSA-N

>  <BindingDB MonomerID>  (1) 
50282462

>  <BindingDB Ligand Name>  (1) 
CHEMBL352503::Quinazolinone Analog

>  <Target Name>  (1) 
Type-1 angiotensin II receptor

>  <Target Source Organism According to Curator or DataSource>  (1) 
Oryctolagus cuniculus

>  <Ki (nM)>  (1) 


>  <IC50 (nM)>  (1) 
 0.190000

>  <Kd (nM)>  (1) 


>  <EC50 (nM)>  (1) 


>  <kon (M-1-s-1)>  (1) 


>  <koff (s-1)>  (1) 


>  <pH>  (1) 


>  <Temp C>  (1) 


>  <Curation/DataSource>  (1) 
ChEMBL

>  <Article DOI>  (1) 
10.1016/S0960-894X(01)81126-4

>  <BindingDB Entry DOI>  (1) 
10.7270/Q2D79BBS

>  <PMID>  (1) 


>  <PubChem AID>  (1) 


>  <Patent Number>  (1) 


>  <Authors>  (1) 
Glinka, TW; de Laszlo, SE; Siegl, PK; Chang, RS; Kivlighn, SD; Schorn, TS; Faust, KA; Chen, TB; Zingaro, GJ; Lotti, VJ; Greenlee, WJ

>  <Institution>  (1) 
TBA

>  <Link to Ligand in BindingDB>  (1) 
http://www.bindingdb.org/bind/chemsearch/marvin/MolStructure.jsp?monomerid=50282462

>  <Link to Ligand-Target Pair in BindingDB>  (1) 
http://www.bindingdb.org/jsp/dbsearch/PrimarySearch_ki.jsp?energyterm=kJ/mole&tag=r21&monomerid=50282462&enzyme=Type-1+angiotensin+II+receptor&column=ki&startPg=0&Increment=50&submit=Search

>  <Ligand HET ID in PDB>  (1) 


>  <PDB ID(s) for Ligand-Target Complex>  (1) 


>  <PubChem CID of Ligand>  (1) 
44381427

>  <PubChem SID of Ligand>  (1) 
104124136

>  <ChEBI ID of Ligand>  (1) 


>  <ChEMBL ID of Ligand>  (1) 
CHEMBL352503

>  <DrugBank ID of Ligand>  (1) 


>  <IUPHAR_GRAC ID of Ligand>  (1) 


>  <KEGG ID of Ligand>  (1) 


>  <ZINC ID of Ligand>  (1) 
ZINC27996794

>  <Number of Protein Chains in Target (bigger than 1 implies a multichain complex)>  (1) 
1

>  <BindingDB Target Chain Sequence>  (1) 
MMLNSSTEDGIKRIQDDCPKAGRHNYIFVMIPTLYSIIFVVGIFGNSLAVIVIYFYMKLKTVASVFLLNLALADLCFLLTLPLWAVYTAMEYRWPFGNYLCKIASASVSFNLYASVFLLTCLSIDRYLAIVHPMKSRLRRTMLVAKVTCIIIWLLAGLASLPAIIHRNVFFIENTNITVCAFHYESQNSTLPIGLGLTKNILGFLFPFLIILTSYTLIWKALKKAYEIQKNKPRNDDIFKIIMAIVLFFFFSWVPHQIFTFLDVLIQLGVIHDCRIADIVDTAMPITICIAYFNNCLNPLFYGFLGKKFKKYFLQLLKYIPPKAKSHSNLSTKMSTLSYRPSDNVSSSSKKPVPCFEVE

>  <PDB ID(s) of Target Chain>  (1) 
6DO1,6OS0,6OS1,6OS2

>  <UniProt (SwissProt) Recommended Name of Target Chain>  (1) 
Type-1 angiotensin II receptor

>  <UniProt (SwissProt) Entry Name of Target Chain>  (1) 
AGTR1_RABIT

>  <UniProt (SwissProt) Primary ID of Target Chain>  (1) 
P34976

>  <UniProt (SwissProt) Secondary ID(s) of Target Chain>  (1) 


>  <UniProt (SwissProt) Alternative ID(s) of Target Chain>  (1) 


>  <UniProt (TrEMBL) Submitted Name of Target Chain>  (1) 


>  <UniProt (TrEMBL) Entry Name of Target Chain>  (1) 


>  <UniProt (TrEMBL) Primary ID of Target Chain>  (1) 


>  <UniProt (TrEMBL) Secondary ID(s) of Target Chain>  (1) 


>  <UniProt (TrEMBL) Alternative ID(s) of Target Chain>  (1) 


$$$$
