
     RDKit          2D

 48 51  0  0  0  0  0  0  0  0999 V2000
    6.4266   -7.7213    0.0000 S   0  0  0  0  0  0  0  0  0  0  0  0
    2.8662   -6.4734    0.0000 N   0  0  0  0  0  0  0  0  0  0  0  0
    3.5331   -5.9938    0.0000 C   0  0  0  0  0  0  0  0  0  0  0  0
    2.4607   -5.2099    0.0000 N   0  0  0  0  0  0  0  0  0  0  0  0
    3.2796   -5.2099    0.0000 C   0  0  0  0  0  0  0  0  0  0  0  0
    2.2033   -5.9898    0.0000 C   0  0  0  0  0  0  0  0  0  0  0  0
    7.1403   -7.3040    0.0000 N   0  0  0  0  0  0  0  0  0  0  0  0
    6.4266   -8.5441    0.0000 C   0  0  0  0  0  0  0  0  0  0  0  0
    2.8662   -7.3001    0.0000 C   0  0  0  0  0  0  0  0  0  0  0  0
    4.3208   -6.2511    0.0000 C   0  0  0  0  0  0  0  0  0  0  0  0
    7.8617   -7.7213    0.0000 C   0  0  0  0  0  0  0  0  0  0  0  0
    3.5799   -7.7135    0.0000 C   0  0  0  0  0  0  0  0  0  0  0  0
    5.7130   -8.9536    0.0000 C   0  0  0  0  0  0  0  0  0  0  0  0
    4.9994   -8.5441    0.0000 C   0  0  0  0  0  0  0  0  0  0  0  0
    3.5721   -8.5441    0.0000 C   0  0  0  0  0  0  0  0  0  0  0  0
    5.7091   -8.1307    0.0000 O   0  0  0  0  0  0  0  0  0  0  0  0
    5.8417   -7.1363    0.0000 O   0  0  0  0  0  0  0  0  0  0  0  0
    4.2857   -8.9536    0.0000 C   0  0  0  0  0  0  0  0  0  0  0  0
    4.9369   -5.7013    0.0000 O   0  0  0  0  0  0  0  0  0  0  0  0
    6.3330   -5.4088    0.0000 C   0  0  0  0  0  0  0  0  0  0  0  0
    4.2857   -7.3040    0.0000 C   0  0  0  0  0  0  0  0  0  0  0  0
    7.8617   -8.5441    0.0000 O   0  0  0  0  0  0  0  0  0  0  0  0
    5.7208   -5.9587    0.0000 C   0  0  0  0  0  0  0  0  0  0  0  0
    4.4612   -6.8322    0.0000 O   0  0  0  0  0  0  0  0  0  0  0  0
    4.9994   -7.7135    0.0000 C   0  0  0  0  0  0  0  0  0  0  0  0
    6.1653   -4.6016    0.0000 C   0  0  0  0  0  0  0  0  0  0  0  0
    8.5792   -7.3040    0.0000 O   0  0  0  0  0  0  0  0  0  0  0  0
    2.8545   -8.9497    0.0000 F   0  0  0  0  0  0  0  0  0  0  0  0
    3.4902   -4.4105    0.0000 C   0  0  0  0  0  0  0  0  0  0  0  0
    1.4156   -6.2394    0.0000 C   0  0  0  0  0  0  0  0  0  0  0  0
    5.3815   -4.3442    0.0000 O   0  0  0  0  0  0  0  0  0  0  0  0
    7.1403   -8.9536    0.0000 C   0  0  0  0  0  0  0  0  0  0  0  0
    9.2929   -7.7135    0.0000 C   0  0  0  0  0  0  0  0  0  0  0  0
    5.7130   -9.7842    0.0000 C   0  0  0  0  0  0  0  0  0  0  0  0
    7.1169   -5.6662    0.0000 C   0  0  0  0  0  0  0  0  0  0  0  0
    6.7776   -4.0517    0.0000 C   0  0  0  0  0  0  0  0  0  0  0  0
   10.0065   -7.3040    0.0000 C   0  0  0  0  0  0  0  0  0  0  0  0
   10.7201   -7.7135    0.0000 C   0  0  0  0  0  0  0  0  0  0  0  0
    5.2099   -3.5370    0.0000 C   0  0  0  0  0  0  0  0  0  0  0  0
    0.7995   -5.6857    0.0000 C   0  0  0  0  0  0  0  0  0  0  0  0
    2.9053   -3.8295    0.0000 C   0  0  0  0  0  0  0  0  0  0  0  0
    7.1480   -9.7842    0.0000 C   0  0  0  0  0  0  0  0  0  0  0  0
    6.4266  -10.2014    0.0000 C   0  0  0  0  0  0  0  0  0  0  0  0
   11.4415   -7.3040    0.0000 C   0  0  0  0  0  0  0  0  0  0  0  0
   10.7279   -8.5441    0.0000 C   0  0  0  0  0  0  0  0  0  0  0  0
    7.7369   -5.1163    0.0000 C   0  0  0  0  0  0  0  0  0  0  0  0
    0.0156   -5.9353    0.0000 C   0  0  0  0  0  0  0  0  0  0  0  0
    7.5692   -4.3052    0.0000 C   0  0  0  0  0  0  0  0  0  0  0  0
  2  9  1  0
  3  2  1  0
  4  6  2  0
  5  3  2  0
  6  2  1  0
  7  1  1  0
  8  1  1  0
  9 12  1  0
 10  3  1  0
 11  7  1  0
 12 21  2  0
 13  8  2  0
 14 13  1  0
 15 18  2  0
 16  1  2  0
 17  1  2  0
 18 14  1  0
 19 10  1  0
 20 23  1  0
 21 25  1  0
 22 11  2  0
 23 19  1  0
 24 10  2  0
 25 14  2  0
 26 20  2  0
 27 11  1  0
 28 15  1  0
 29  5  1  0
 30  6  1  0
 31 26  1  0
 32  8  1  0
 33 27  1  0
 34 13  1  0
 35 20  1  0
 36 26  1  0
 37 33  1  0
 38 37  1  0
 39 31  1  0
 40 30  1  0
 41 29  1  0
 42 32  2  0
 43 42  1  0
 44 38  1  0
 45 38  1  0
 46 35  2  0
 47 40  1  0
 48 46  1  0
 43 34  2  0
 15 12  1  0
  4  5  1  0
 48 36  2  0
M  END
>  <From>  (1) 
www.bindingDB.org

>  <BindingDB Reactant_set_id>  (1) 
50469170

>  <Ligand InChI>  (1) 
InChI=1S/C36H42FN3O7S/c1-6-12-33-38-30(7-2)34(35(41)47-23-27-13-8-10-15-31(27)45-5)40(33)22-26-18-17-25(21-29(26)37)28-14-9-11-16-32(28)48(43,44)39-36(42)46-20-19-24(3)4/h8-11,13-18,21,24H,6-7,12,19-20,22-23H2,1-5H3,(H,39,42)

>  <Ligand InChI Key>  (1) 
QKNPCCKKMYTRGV-UHFFFAOYSA-N

>  <BindingDB MonomerID>  (1) 
50283245

>  <BindingDB Ligand Name>  (1) 
Biphenylsulfonylcarbamate compound::CHEMBL70789

>  <Target Name>  (1) 
Type-1 angiotensin II receptor

>  <Target Source Organism According to Curator or DataSource>  (1) 
Homo sapiens

>  <Ki (nM)>  (1) 


>  <IC50 (nM)>  (1) 
 0.100000

>  <Kd (nM)>  (1) 


>  <EC50 (nM)>  (1) 


>  <kon (M-1-s-1)>  (1) 


>  <koff (s-1)>  (1) 


>  <pH>  (1) 


>  <Temp C>  (1) 


>  <Curation/DataSource>  (1) 
ChEMBL

>  <Article DOI>  (1) 
10.1016/S0960-894X(00)80077-3

>  <BindingDB Entry DOI>  (1) 
10.7270/Q2DZ088W

>  <PMID>  (1) 


>  <PubChem AID>  (1) 


>  <Patent Number>  (1) 


>  <Authors>  (1) 
Santella, JB; Duncia, JV; Ensinger, CL; VanAtten, MK; Carini, DJ; Wexler, RR; Chiu, AT; Wong, PC; Timmermans, PB

>  <Institution>  (1) 
TBA

>  <Link to Ligand in BindingDB>  (1) 
http://www.bindingdb.org/bind/chemsearch/marvin/MolStructure.jsp?monomerid=50283245

>  <Link to Ligand-Target Pair in BindingDB>  (1) 
http://www.bindingdb.org/jsp/dbsearch/PrimarySearch_ki.jsp?energyterm=kJ/mole&tag=r21&monomerid=50283245&enzyme=Type-1+angiotensin+II+receptor&column=ki&startPg=0&Increment=50&submit=Search

>  <Ligand HET ID in PDB>  (1) 


>  <PDB ID(s) for Ligand-Target Complex>  (1) 


>  <PubChem CID of Ligand>  (1) 
44311072

>  <PubChem SID of Ligand>  (1) 
104124919

>  <ChEBI ID of Ligand>  (1) 


>  <ChEMBL ID of Ligand>  (1) 
CHEMBL70789

>  <DrugBank ID of Ligand>  (1) 


>  <IUPHAR_GRAC ID of Ligand>  (1) 


>  <KEGG ID of Ligand>  (1) 


>  <ZINC ID of Ligand>  (1) 
ZINC26295380

>  <Number of Protein Chains in Target (bigger than 1 implies a multichain complex)>  (1) 
1

>  <BindingDB Target Chain Sequence>  (1) 
MILNSSTEDGIKRIQDDCPKAGRHNYIFVMIPTLYSIIFVVGIFGNSLVVIVIYFYMKLKTVASVFLLNLALADLCFLLTLPLWAVYTAMEYRWPFGNYLCKIASASVSFNLYASVFLLTCLSIDRYLAIVHPMKSRLRRTMLVAKVTCIIIWLLAGLASLPAIIHRNVFFIENTNITVCAFHYESQNSTLPIGLGLTKNILGFLFPFLIILTSYTLIWKALKKAYEIQKNKPRNDDIFKIIMAIVLFFFFSWIPHQIFTFLDVLIQLGIIRDCRIADIVDTAMPITICIAYFNNCLNPLFYGFLGKKFKRYFLQLLKYIPPKAKSHSNLSTKMSTLSYRPSDNVSSSTKKPAPCFEVE

>  <PDB ID(s) of Target Chain>  (1) 
6DO1,6OS0,6OS1,6OS2

>  <UniProt (SwissProt) Recommended Name of Target Chain>  (1) 
Type-1 angiotensin II receptor

>  <UniProt (SwissProt) Entry Name of Target Chain>  (1) 
AGTR1_HUMAN

>  <UniProt (SwissProt) Primary ID of Target Chain>  (1) 
P30556

>  <UniProt (SwissProt) Secondary ID(s) of Target Chain>  (1) 
Q13725 Q8TBK4

>  <UniProt (SwissProt) Alternative ID(s) of Target Chain>  (1) 


>  <UniProt (TrEMBL) Submitted Name of Target Chain>  (1) 


>  <UniProt (TrEMBL) Entry Name of Target Chain>  (1) 


>  <UniProt (TrEMBL) Primary ID of Target Chain>  (1) 


>  <UniProt (TrEMBL) Secondary ID(s) of Target Chain>  (1) 


>  <UniProt (TrEMBL) Alternative ID(s) of Target Chain>  (1) 


$$$$
