
     RDKit          2D

 46 49  0  0  0  0  0  0  0  0999 V2000
    1.2028   -4.9487    0.0000 N   0  0  0  0  0  0  0  0  0  0  0  0
    1.5121   -6.2431    0.0000 N   0  0  0  0  0  0  0  0  0  0  0  0
    1.8272   -5.4813    0.0000 C   0  0  0  0  0  0  0  0  0  0  0  0
    5.2064   -5.4470    0.0000 S   0  0  0  0  0  0  0  0  0  0  0  0
    0.4983   -5.3782    0.0000 N   0  0  0  0  0  0  0  0  0  0  0  0
    0.6873   -6.1744    0.0000 C   0  0  0  0  0  0  0  0  0  0  0  0
    5.6016   -4.7253    0.0000 N   0  0  0  0  0  0  0  0  0  0  0  0
    1.2715   -4.1239    0.0000 C   0  0  0  0  0  0  0  0  0  0  0  0
    1.9417   -6.9476    0.0000 C   0  0  0  0  0  0  0  0  0  0  0  0
    5.6360   -6.1515    0.0000 C   0  0  0  0  0  0  0  0  0  0  0  0
    6.4264   -4.7081    0.0000 C   0  0  0  0  0  0  0  0  0  0  0  0
    2.7550   -6.9247    0.0000 C   0  0  0  0  0  0  0  0  0  0  0  0
    5.2294   -6.8731    0.0000 C   0  0  0  0  0  0  0  0  0  0  0  0
    4.4160   -6.8789    0.0000 C   0  0  0  0  0  0  0  0  0  0  0  0
    2.0162   -3.7688    0.0000 C   0  0  0  0  0  0  0  0  0  0  0  0
    3.1846   -7.6292    0.0000 C   0  0  0  0  0  0  0  0  0  0  0  0
    4.5191   -4.8284    0.0000 O   0  0  0  0  0  0  0  0  0  0  0  0
    4.7482   -6.1572    0.0000 O   0  0  0  0  0  0  0  0  0  0  0  0
    4.0094   -7.6120    0.0000 C   0  0  0  0  0  0  0  0  0  0  0  0
    2.6290   -5.2923    0.0000 O   0  0  0  0  0  0  0  0  0  0  0  0
    0.5900   -3.6599    0.0000 C   0  0  0  0  0  0  0  0  0  0  0  0
    2.8925   -1.7756    0.0000 C   0  0  0  0  0  0  0  0  0  0  0  0
    2.8238   -2.6004    0.0000 N   0  0  0  0  0  0  0  0  0  0  0  0
    2.0791   -2.9440    0.0000 C   0  0  0  0  0  0  0  0  0  0  0  0
    6.8560   -5.4126    0.0000 O   0  0  0  0  0  0  0  0  0  0  0  0
    6.8274   -3.9864    0.0000 O   0  0  0  0  0  0  0  0  0  0  0  0
    3.1616   -6.1916    0.0000 C   0  0  0  0  0  0  0  0  0  0  0  0
    3.9864   -6.1744    0.0000 C   0  0  0  0  0  0  0  0  0  0  0  0
    2.2052   -1.3059    0.0000 O   0  0  0  0  0  0  0  0  0  0  0  0
    0.6529   -2.8409    0.0000 C   0  0  0  0  0  0  0  0  0  0  0  0
    2.7722   -8.3395    0.0000 F   0  0  0  0  0  0  0  0  0  0  0  0
    1.3976   -2.4801    0.0000 C   0  0  0  0  0  0  0  0  0  0  0  0
   -0.1317   -4.0609    0.0000 Br  0  0  0  0  0  0  0  0  0  0  0  0
    0.1546   -6.8044    0.0000 C   0  0  0  0  0  0  0  0  0  0  0  0
    6.4493   -6.1343    0.0000 C   0  0  0  0  0  0  0  0  0  0  0  0
    5.6589   -7.5776    0.0000 C   0  0  0  0  0  0  0  0  0  0  0  0
    7.6521   -3.9692    0.0000 C   0  0  0  0  0  0  0  0  0  0  0  0
    3.6314   -1.4148    0.0000 C   0  0  0  0  0  0  0  0  0  0  0  0
    3.6943   -0.6072    0.0000 C   0  0  0  0  0  0  0  0  0  0  0  0
    0.4296   -7.5834    0.0000 C   0  0  0  0  0  0  0  0  0  0  0  0
    4.4389   -0.2463    0.0000 C   0  0  0  0  0  0  0  0  0  0  0  0
    8.0473   -3.2361    0.0000 C   0  0  0  0  0  0  0  0  0  0  0  0
    8.0759   -4.6737    0.0000 C   0  0  0  0  0  0  0  0  0  0  0  0
    6.8789   -6.8445    0.0000 C   0  0  0  0  0  0  0  0  0  0  0  0
    6.4837   -7.5662    0.0000 C   0  0  0  0  0  0  0  0  0  0  0  0
    4.5019    0.5784    0.0000 C   0  0  0  0  0  0  0  0  0  0  0  0
  2  3  1  0
  3  1  1  0
  4 10  1  0
  5  1  1  0
  6  5  2  0
  7  4  1  0
  8  1  1  0
  9  2  1  0
 10 13  2  0
 11  7  1  0
 12  9  1  0
 13 14  1  0
 14 28  1  0
 15  8  2  0
 16 12  2  0
 17  4  2  0
 18  4  2  0
 19 16  1  0
 20  3  2  0
 21  8  1  0
 22 23  1  0
 23 24  1  0
 24 15  1  0
 25 11  2  0
 26 11  1  0
 27 12  1  0
 28 27  2  0
 29 22  2  0
 30 21  2  0
 31 16  1  0
 32 30  1  0
 33 21  1  0
 34  6  1  0
 35 10  1  0
 36 13  1  0
 37 26  1  0
 38 22  1  0
 39 38  1  0
 40 34  1  0
 41 39  1  0
 42 37  1  0
 43 37  1  0
 44 45  1  0
 45 36  2  0
 46 41  1  0
  6  2  1  0
 24 32  2  0
 19 14  2  0
 35 44  2  0
M  END
>  <From>  (1) 
www.bindingDB.org

>  <BindingDB Reactant_set_id>  (1) 
51183672

>  <Ligand InChI>  (1) 
InChI=1S/C32H35BrFN5O6S/c1-5-7-12-30(40)35-23-15-16-25(33)27(18-23)39-32(42)38(29(6-2)36-39)19-22-14-13-21(17-26(22)34)24-10-8-9-11-28(24)46(43,44)37-31(41)45-20(3)4/h8-11,13-18,20H,5-7,12,19H2,1-4H3,(H,35,40)(H,37,41)

>  <Ligand InChI Key>  (1) 
FVWOWORFCQFYEN-UHFFFAOYSA-N

>  <BindingDB MonomerID>  (1) 
50030693

>  <BindingDB Ligand Name>  (1) 
CHEMBL338687::Pentanoic acid {4-bromo-3-[3-ethyl-4-(3-fluoro-2'-(N-t-butyloxycarbonyl)-Sulfanamido-biphenyl-4-ylmethyl)-5-oxo-4,5-dihydro-[1,2,4]triazol-1-yl]-phenyl}-amide

>  <Target Name>  (1) 
Type-1 angiotensin II receptor

>  <Target Source Organism According to Curator or DataSource>  (1) 
Oryctolagus cuniculus

>  <Ki (nM)>  (1) 


>  <IC50 (nM)>  (1) 
 0.820000

>  <Kd (nM)>  (1) 


>  <EC50 (nM)>  (1) 


>  <kon (M-1-s-1)>  (1) 


>  <koff (s-1)>  (1) 


>  <pH>  (1) 


>  <Temp C>  (1) 


>  <Curation/DataSource>  (1) 
ChEMBL

>  <Article DOI>  (1) 
10.1007/s00044-011-9815-x

>  <BindingDB Entry DOI>  (1) 
10.7270/Q2VT1W0S

>  <PMID>  (1) 


>  <PubChem AID>  (1) 


>  <Patent Number>  (1) 


>  <Authors>  (1) 
n/a

>  <Institution>  (1) 
n/a

>  <Link to Ligand in BindingDB>  (1) 
http://www.bindingdb.org/bind/chemsearch/marvin/MolStructure.jsp?monomerid=50030693

>  <Link to Ligand-Target Pair in BindingDB>  (1) 
http://www.bindingdb.org/jsp/dbsearch/PrimarySearch_ki.jsp?energyterm=kJ/mole&tag=r21&monomerid=50030693&enzyme=Type-1+angiotensin+II+receptor&column=ki&startPg=0&Increment=50&submit=Search

>  <Ligand HET ID in PDB>  (1) 


>  <PDB ID(s) for Ligand-Target Complex>  (1) 


>  <PubChem CID of Ligand>  (1) 
10078554

>  <PubChem SID of Ligand>  (1) 
103939541

>  <ChEBI ID of Ligand>  (1) 


>  <ChEMBL ID of Ligand>  (1) 
CHEMBL338687

>  <DrugBank ID of Ligand>  (1) 


>  <IUPHAR_GRAC ID of Ligand>  (1) 


>  <KEGG ID of Ligand>  (1) 


>  <ZINC ID of Ligand>  (1) 
ZINC27211742

>  <Number of Protein Chains in Target (bigger than 1 implies a multichain complex)>  (1) 
1

>  <BindingDB Target Chain Sequence>  (1) 
MMLNSSTEDGIKRIQDDCPKAGRHNYIFVMIPTLYSIIFVVGIFGNSLAVIVIYFYMKLKTVASVFLLNLALADLCFLLTLPLWAVYTAMEYRWPFGNYLCKIASASVSFNLYASVFLLTCLSIDRYLAIVHPMKSRLRRTMLVAKVTCIIIWLLAGLASLPAIIHRNVFFIENTNITVCAFHYESQNSTLPIGLGLTKNILGFLFPFLIILTSYTLIWKALKKAYEIQKNKPRNDDIFKIIMAIVLFFFFSWVPHQIFTFLDVLIQLGVIHDCRIADIVDTAMPITICIAYFNNCLNPLFYGFLGKKFKKYFLQLLKYIPPKAKSHSNLSTKMSTLSYRPSDNVSSSSKKPVPCFEVE

>  <PDB ID(s) of Target Chain>  (1) 
6DO1,6OS0,6OS1,6OS2

>  <UniProt (SwissProt) Recommended Name of Target Chain>  (1) 
Type-1 angiotensin II receptor

>  <UniProt (SwissProt) Entry Name of Target Chain>  (1) 
AGTR1_RABIT

>  <UniProt (SwissProt) Primary ID of Target Chain>  (1) 
P34976

>  <UniProt (SwissProt) Secondary ID(s) of Target Chain>  (1) 


>  <UniProt (SwissProt) Alternative ID(s) of Target Chain>  (1) 


>  <UniProt (TrEMBL) Submitted Name of Target Chain>  (1) 


>  <UniProt (TrEMBL) Entry Name of Target Chain>  (1) 


>  <UniProt (TrEMBL) Primary ID of Target Chain>  (1) 


>  <UniProt (TrEMBL) Secondary ID(s) of Target Chain>  (1) 


>  <UniProt (TrEMBL) Alternative ID(s) of Target Chain>  (1) 


$$$$
