
     RDKit          2D

 40 44  0  0  0  0  0  0  0  0999 V2000
    5.5561   -5.0692    0.0000 N   0  0  0  0  0  0  0  0  0  0  0  0
    5.2582   -3.7632    0.0000 N   0  0  0  0  0  0  0  0  0  0  0  0
    5.8768   -4.3017    0.0000 C   0  0  0  0  0  0  0  0  0  0  0  0
    4.6568   -2.4631    0.0000 C   0  0  0  0  0  0  0  0  0  0  0  0
    4.5423   -4.1814    0.0000 N   0  0  0  0  0  0  0  0  0  0  0  0
    4.7313   -4.9891    0.0000 C   0  0  0  0  0  0  0  0  0  0  0  0
    3.3051   -1.5179    0.0000 C   0  0  0  0  0  0  0  0  0  0  0  0
    4.0611   -1.1743    0.0000 C   0  0  0  0  0  0  0  0  0  0  0  0
    3.2363   -2.3428    0.0000 C   0  0  0  0  0  0  0  0  0  0  0  0
    9.2449   -4.2959    0.0000 C   0  0  0  0  0  0  0  0  0  0  0  0
    4.7313   -1.6496    0.0000 C   0  0  0  0  0  0  0  0  0  0  0  0
    3.9179   -2.8181    0.0000 C   0  0  0  0  0  0  0  0  0  0  0  0
    5.3327   -2.9442    0.0000 C   0  0  0  0  0  0  0  0  0  0  0  0
    8.4200   -4.2330    0.0000 N   0  0  0  0  0  0  0  0  0  0  0  0
    8.2310   -3.4253    0.0000 N   0  0  0  0  0  0  0  0  0  0  0  0
    9.5600   -3.5399    0.0000 N   0  0  0  0  0  0  0  0  0  0  0  0
    8.9356   -2.9957    0.0000 N   0  0  0  0  0  0  0  0  0  0  0  0
    9.6745   -5.0005    0.0000 C   0  0  0  0  0  0  0  0  0  0  0  0
    9.2850   -5.7222    0.0000 C   0  0  0  0  0  0  0  0  0  0  0  0
    5.9800   -5.7795    0.0000 C   0  0  0  0  0  0  0  0  0  0  0  0
    6.6845   -4.1241    0.0000 O   0  0  0  0  0  0  0  0  0  0  0  0
    8.4602   -5.7394    0.0000 C   0  0  0  0  0  0  0  0  0  0  0  0
    2.6349   -1.0482    0.0000 F   0  0  0  0  0  0  0  0  0  0  0  0
    2.4916   -2.6979    0.0000 F   0  0  0  0  0  0  0  0  0  0  0  0
    4.1299   -0.3494    0.0000 F   0  0  0  0  0  0  0  0  0  0  0  0
    3.8378   -3.6430    0.0000 F   0  0  0  0  0  0  0  0  0  0  0  0
    5.4874   -1.3060    0.0000 F   0  0  0  0  0  0  0  0  0  0  0  0
    8.0592   -6.4611    0.0000 C   0  0  0  0  0  0  0  0  0  0  0  0
    8.0306   -5.0348    0.0000 C   0  0  0  0  0  0  0  0  0  0  0  0
    6.8048   -5.7623    0.0000 C   0  0  0  0  0  0  0  0  0  0  0  0
    4.1814   -5.6077    0.0000 C   0  0  0  0  0  0  0  0  0  0  0  0
    7.2230   -6.4669    0.0000 C   0  0  0  0  0  0  0  0  0  0  0  0
    7.2058   -5.0406    0.0000 C   0  0  0  0  0  0  0  0  0  0  0  0
   10.4993   -4.9833    0.0000 C   0  0  0  0  0  0  0  0  0  0  0  0
    9.6974   -6.4267    0.0000 C   0  0  0  0  0  0  0  0  0  0  0  0
    3.3738   -5.4530    0.0000 C   0  0  0  0  0  0  0  0  0  0  0  0
    2.8353   -6.0716    0.0000 C   0  0  0  0  0  0  0  0  0  0  0  0
   10.9289   -5.6764    0.0000 C   0  0  0  0  0  0  0  0  0  0  0  0
   10.5222   -6.4153    0.0000 C   0  0  0  0  0  0  0  0  0  0  0  0
    2.0277   -5.9112    0.0000 C   0  0  0  0  0  0  0  0  0  0  0  0
  2  3  1  0
  3  1  1  0
  4 13  1  0
  5  6  2  0
  6  1  1  0
  7  9  2  0
  8 11  2  0
  9 12  1  0
 10 18  1  0
 11  4  1  0
 12  4  2  0
 13  2  1  0
 14 10  1  0
 15 14  1  0
 16 10  2  0
 17 16  1  0
 18 19  1  0
 19 22  1  0
 20  1  1  0
 21  3  2  0
 22 29  2  0
 23  7  1  0
 24  9  1  0
 25  8  1  0
 26 12  1  0
 27 11  1  0
 28 32  2  0
 29 33  1  0
 30 20  1  0
 31  6  1  0
 32 30  1  0
 33 30  2  0
 34 18  2  0
 35 19  2  0
 36 31  1  0
 37 36  1  0
 38 39  2  0
 39 35  1  0
 40 37  1  0
  5  2  1  0
 22 28  1  0
  7  8  1  0
 38 34  1  0
 15 17  2  0
M  END
>  <From>  (1) 
www.bindingDB.org

>  <BindingDB Reactant_set_id>  (1) 
50060543

>  <Ligand InChI>  (1) 
InChI=1S/C27H22F5N7O/c1-2-3-8-20-35-39(14-19-21(28)23(30)25(32)24(31)22(19)29)27(40)38(20)13-15-9-11-16(12-10-15)17-6-4-5-7-18(17)26-33-36-37-34-26/h4-7,9-12H,2-3,8,13-14H2,1H3,(H,33,34,36,37)

>  <Ligand InChI Key>  (1) 
MYHNQMLUZIOCBC-UHFFFAOYSA-N

>  <BindingDB MonomerID>  (1) 
50044544

>  <BindingDB Ligand Name>  (1) 
5-Butyl-2-pentafluorophenylmethyl-4-[2'-(2H-tetrazol-5-yl)-biphenyl-4-ylmethyl]-2,4-dihydro-[1,2,4]triazol-3-one::CHEMBL85765

>  <Target Name>  (1) 
Type-1 angiotensin II receptor

>  <Target Source Organism According to Curator or DataSource>  (1) 
Oryctolagus cuniculus

>  <Ki (nM)>  (1) 


>  <IC50 (nM)>  (1) 
 32

>  <Kd (nM)>  (1) 


>  <EC50 (nM)>  (1) 


>  <kon (M-1-s-1)>  (1) 


>  <koff (s-1)>  (1) 


>  <pH>  (1) 


>  <Temp C>  (1) 


>  <Curation/DataSource>  (1) 
ChEMBL

>  <Article DOI>  (1) 
10.1021/jm00069a015

>  <BindingDB Entry DOI>  (1) 
10.7270/Q2KP817C

>  <PMID>  (1) 
8355255

>  <PubChem AID>  (1) 


>  <Patent Number>  (1) 


>  <Authors>  (1) 
Chang, LL; Ashton, WT; Flanagan, KL; Strelitz, RA; MacCoss, M; Greenlee, WJ; Chang, RS; Lotti, VJ; Faust, KA; Chen, TB

>  <Institution>  (1) 
Merck Research Laboratories

>  <Link to Ligand in BindingDB>  (1) 
http://www.bindingdb.org/bind/chemsearch/marvin/MolStructure.jsp?monomerid=50044544

>  <Link to Ligand-Target Pair in BindingDB>  (1) 
http://www.bindingdb.org/jsp/dbsearch/PrimarySearch_ki.jsp?energyterm=kJ/mole&tag=r21&monomerid=50044544&enzyme=Type-1+angiotensin+II+receptor&column=ki&startPg=0&Increment=50&submit=Search

>  <Ligand HET ID in PDB>  (1) 


>  <PDB ID(s) for Ligand-Target Complex>  (1) 


>  <PubChem CID of Ligand>  (1) 
14956801

>  <PubChem SID of Ligand>  (1) 
103975782

>  <ChEBI ID of Ligand>  (1) 


>  <ChEMBL ID of Ligand>  (1) 
CHEMBL85765

>  <DrugBank ID of Ligand>  (1) 


>  <IUPHAR_GRAC ID of Ligand>  (1) 


>  <KEGG ID of Ligand>  (1) 


>  <ZINC ID of Ligand>  (1) 
ZINC26573891

>  <Number of Protein Chains in Target (bigger than 1 implies a multichain complex)>  (1) 
1

>  <BindingDB Target Chain Sequence>  (1) 
MMLNSSTEDGIKRIQDDCPKAGRHNYIFVMIPTLYSIIFVVGIFGNSLAVIVIYFYMKLKTVASVFLLNLALADLCFLLTLPLWAVYTAMEYRWPFGNYLCKIASASVSFNLYASVFLLTCLSIDRYLAIVHPMKSRLRRTMLVAKVTCIIIWLLAGLASLPAIIHRNVFFIENTNITVCAFHYESQNSTLPIGLGLTKNILGFLFPFLIILTSYTLIWKALKKAYEIQKNKPRNDDIFKIIMAIVLFFFFSWVPHQIFTFLDVLIQLGVIHDCRIADIVDTAMPITICIAYFNNCLNPLFYGFLGKKFKKYFLQLLKYIPPKAKSHSNLSTKMSTLSYRPSDNVSSSSKKPVPCFEVE

>  <PDB ID(s) of Target Chain>  (1) 
6DO1,6OS0,6OS1,6OS2

>  <UniProt (SwissProt) Recommended Name of Target Chain>  (1) 
Type-1 angiotensin II receptor

>  <UniProt (SwissProt) Entry Name of Target Chain>  (1) 
AGTR1_RABIT

>  <UniProt (SwissProt) Primary ID of Target Chain>  (1) 
P34976

>  <UniProt (SwissProt) Secondary ID(s) of Target Chain>  (1) 


>  <UniProt (SwissProt) Alternative ID(s) of Target Chain>  (1) 


>  <UniProt (TrEMBL) Submitted Name of Target Chain>  (1) 


>  <UniProt (TrEMBL) Entry Name of Target Chain>  (1) 


>  <UniProt (TrEMBL) Primary ID of Target Chain>  (1) 


>  <UniProt (TrEMBL) Secondary ID(s) of Target Chain>  (1) 


>  <UniProt (TrEMBL) Alternative ID(s) of Target Chain>  (1) 


$$$$
