
     RDKit          2D

 36 39  0  0  1  0  0  0  0  0999 V2000
    6.2254   -4.6513    0.0000 C   0  0  0  0  0  0  0  0  0  0  0  0
    4.9144   -4.9269    0.0000 N   0  0  0  0  0  0  0  0  0  0  0  0
    5.4655   -4.3131    0.0000 N   0  0  0  0  0  0  0  0  0  0  0  0
    5.3277   -5.6492    0.0000 N   0  0  0  0  0  0  0  0  0  0  0  0
    4.0751   -0.9311    0.0000 N   0  0  0  0  0  0  0  0  0  0  0  0
    6.1377   -5.4780    0.0000 N   0  0  0  0  0  0  0  0  0  0  0  0
    4.7891   -0.5136    0.0000 C   0  0  0  0  0  0  0  0  0  0  0  0
    6.9394   -4.2380    0.0000 C   0  0  0  0  0  0  0  0  0  0  0  0
    3.3612   -0.5178    0.0000 C   0  0  0  0  0  0  0  0  0  0  0  0
    6.9394   -3.4070    0.0000 C   0  0  0  0  0  0  0  0  0  0  0  0
    4.7891    0.3131    0.0000 C   0  0  0  0  0  0  0  0  0  0  0  0
    4.0751   -1.7578    0.0000 C   0  0  0  0  0  0  0  0  0  0  0  0
    6.2254   -2.9979    0.0000 C   0  0  0  0  0  0  0  0  0  0  0  0
    5.5031   -0.9269    0.0000 C   0  0  0  0  0  0  0  0  0  0  0  0
    3.3612    0.3089    0.0000 O   0  0  0  0  0  0  0  0  0  0  0  0
    4.0751    0.7265    0.0000 O   0  0  0  0  0  0  0  0  0  0  0  0
    5.5156   -3.4070    0.0000 C   0  0  0  0  0  0  0  0  0  0  0  0
    6.2254   -2.1670    0.0000 C   0  0  0  0  0  0  0  0  0  0  0  0
    4.7891   -2.1670    0.0000 C   0  0  0  0  0  0  0  0  0  0  0  0
    5.5031    0.7348    0.0000 O   0  0  0  0  0  0  0  0  0  0  0  0
    4.7974   -2.9979    0.0000 C   0  0  0  0  0  0  0  0  0  0  0  0
    5.5114   -1.7536    0.0000 C   0  0  0  0  0  0  0  0  0  0  0  0
    6.2171   -0.5052    0.0000 C   0  0  0  0  0  0  0  0  0  0  0  0
    7.6533   -4.6513    0.0000 C   0  0  0  0  0  0  0  0  0  0  0  0
    2.6430   -0.9186    0.0000 C   0  0  0  0  0  0  0  0  0  0  0  0
    7.6533   -2.9937    0.0000 C   0  0  0  0  0  0  0  0  0  0  0  0
    6.2045    0.3089    0.0000 C   0  0  0  0  0  0  0  0  0  0  0  0
    6.9310   -0.9019    0.0000 C   0  0  0  0  0  0  0  0  0  0  0  0
    1.9207   -0.5052    0.0000 C   0  0  0  0  0  0  0  0  0  0  0  0
    1.2067   -0.9186    0.0000 C   0  0  0  0  0  0  0  0  0  0  0  0
    8.3715   -4.2380    0.0000 C   0  0  0  0  0  0  0  0  0  0  0  0
    8.3715   -3.4070    0.0000 C   0  0  0  0  0  0  0  0  0  0  0  0
    0.4927   -0.5010    0.0000 C   0  0  0  0  0  0  0  0  0  0  0  0
    7.6325   -0.4802    0.0000 C   0  0  0  0  0  0  0  0  0  0  0  0
    6.9060    0.7348    0.0000 C   0  0  0  0  0  0  0  0  0  0  0  0
    7.6200    0.3340    0.0000 C   0  0  0  0  0  0  0  0  0  0  0  0
  2  3  1  0
  3  1  1  0
  4  6  1  0
  5 12  1  0
  6  1  2  0
  7  5  1  0
  8  1  1  0
  9  5  1  0
 10  8  1  0
  7 11  1  0
 12 19  1  0
 13 10  1  0
  7 14  1  6
 15  9  2  0
 16 11  2  0
 17 13  2  0
 18 13  1  0
 19 22  1  0
 20 11  1  0
 21 17  1  0
 22 18  2  0
 23 14  1  0
 24  8  2  0
 25  9  1  0
 26 10  2  0
 27 23  1  0
 28 23  1  0
 29 25  1  0
 30 29  1  0
 31 24  1  0
 32 31  2  0
 33 30  1  0
 34 28  1  0
 35 27  1  0
 36 34  1  0
  2  4  2  0
 32 26  1  0
 19 21  2  0
 36 35  1  0
M  END
>  <From>  (1) 
www.bindingDB.org

>  <BindingDB Reactant_set_id>  (1) 
50467542

>  <Ligand InChI>  (1) 
InChI=1S/C28H35N5O3/c1-2-3-13-26(34)33(25(28(35)36)18-20-9-5-4-6-10-20)19-21-14-16-22(17-15-21)23-11-7-8-12-24(23)27-29-31-32-30-27/h7-8,11-12,14-17,20,25H,2-6,9-10,13,18-19H2,1H3,(H,35,36)(H,29,30,31,32)/t25-/m0/s1

>  <Ligand InChI Key>  (1) 
KOQUAMAKIYUHPT-VWLOTQADSA-N

>  <BindingDB MonomerID>  (1) 
50282370

>  <BindingDB Ligand Name>  (1) 
(S)-3-Cyclohexyl-2-{pentanoyl-[2'-(1H-tetrazol-5-yl)-biphenyl-4-ylmethyl]-amino}-propionic acid::CHEMBL117941

>  <Target Name>  (1) 
Type-1 angiotensin II receptor

>  <Target Source Organism According to Curator or DataSource>  (1) 
Homo sapiens

>  <Ki (nM)>  (1) 


>  <IC50 (nM)>  (1) 
 60

>  <Kd (nM)>  (1) 


>  <EC50 (nM)>  (1) 


>  <kon (M-1-s-1)>  (1) 


>  <koff (s-1)>  (1) 


>  <pH>  (1) 


>  <Temp C>  (1) 


>  <Curation/DataSource>  (1) 
ChEMBL

>  <Article DOI>  (1) 
10.1016/S0960-894X(01)81117-3

>  <BindingDB Entry DOI>  (1) 
10.7270/Q25Q4W14

>  <PMID>  (1) 


>  <PubChem AID>  (1) 


>  <Patent Number>  (1) 


>  <Authors>  (1) 
B&#xfc;hlmayer, P; Furet, P; Criscione, L; Gasparo, Md; Whitebread, S; Schmidlin, T; Lattmann, R; Wood, J

>  <Institution>  (1) 
TBA

>  <Link to Ligand in BindingDB>  (1) 
http://www.bindingdb.org/bind/chemsearch/marvin/MolStructure.jsp?monomerid=50282370

>  <Link to Ligand-Target Pair in BindingDB>  (1) 
http://www.bindingdb.org/jsp/dbsearch/PrimarySearch_ki.jsp?energyterm=kJ/mole&tag=r21&monomerid=50282370&enzyme=Type-1+angiotensin+II+receptor&column=ki&startPg=0&Increment=50&submit=Search

>  <Ligand HET ID in PDB>  (1) 


>  <PDB ID(s) for Ligand-Target Complex>  (1) 


>  <PubChem CID of Ligand>  (1) 
44341924

>  <PubChem SID of Ligand>  (1) 
104124044

>  <ChEBI ID of Ligand>  (1) 


>  <ChEMBL ID of Ligand>  (1) 
CHEMBL117941

>  <DrugBank ID of Ligand>  (1) 


>  <IUPHAR_GRAC ID of Ligand>  (1) 


>  <KEGG ID of Ligand>  (1) 


>  <ZINC ID of Ligand>  (1) 
ZINC27089015

>  <Number of Protein Chains in Target (bigger than 1 implies a multichain complex)>  (1) 
1

>  <BindingDB Target Chain Sequence>  (1) 
MILNSSTEDGIKRIQDDCPKAGRHNYIFVMIPTLYSIIFVVGIFGNSLVVIVIYFYMKLKTVASVFLLNLALADLCFLLTLPLWAVYTAMEYRWPFGNYLCKIASASVSFNLYASVFLLTCLSIDRYLAIVHPMKSRLRRTMLVAKVTCIIIWLLAGLASLPAIIHRNVFFIENTNITVCAFHYESQNSTLPIGLGLTKNILGFLFPFLIILTSYTLIWKALKKAYEIQKNKPRNDDIFKIIMAIVLFFFFSWIPHQIFTFLDVLIQLGIIRDCRIADIVDTAMPITICIAYFNNCLNPLFYGFLGKKFKRYFLQLLKYIPPKAKSHSNLSTKMSTLSYRPSDNVSSSTKKPAPCFEVE

>  <PDB ID(s) of Target Chain>  (1) 
6DO1,6OS0,6OS1,6OS2

>  <UniProt (SwissProt) Recommended Name of Target Chain>  (1) 
Type-1 angiotensin II receptor

>  <UniProt (SwissProt) Entry Name of Target Chain>  (1) 
AGTR1_HUMAN

>  <UniProt (SwissProt) Primary ID of Target Chain>  (1) 
P30556

>  <UniProt (SwissProt) Secondary ID(s) of Target Chain>  (1) 
Q13725 Q8TBK4

>  <UniProt (SwissProt) Alternative ID(s) of Target Chain>  (1) 


>  <UniProt (TrEMBL) Submitted Name of Target Chain>  (1) 


>  <UniProt (TrEMBL) Entry Name of Target Chain>  (1) 


>  <UniProt (TrEMBL) Primary ID of Target Chain>  (1) 


>  <UniProt (TrEMBL) Secondary ID(s) of Target Chain>  (1) 


>  <UniProt (TrEMBL) Alternative ID(s) of Target Chain>  (1) 


$$$$
