
     RDKit          2D

 40 45  0  0  0  0  0  0  0  0999 V2000
    0.5558   -6.2962    0.0000 N   0  0  0  0  0  0  0  0  0  0  0  0
    0.8479   -7.6025    0.0000 N   0  0  0  0  0  0  0  0  0  0  0  0
    1.1745   -6.8405    0.0000 C   0  0  0  0  0  0  0  0  0  0  0  0
   -0.1547   -6.7201    0.0000 N   0  0  0  0  0  0  0  0  0  0  0  0
    0.0230   -7.5279    0.0000 C   0  0  0  0  0  0  0  0  0  0  0  0
    4.5432   -6.8290    0.0000 C   0  0  0  0  0  0  0  0  0  0  0  0
    3.7182   -6.7603    0.0000 N   0  0  0  0  0  0  0  0  0  0  0  0
    0.6245   -5.4713    0.0000 C   0  0  0  0  0  0  0  0  0  0  0  0
    3.5291   -5.9639    0.0000 N   0  0  0  0  0  0  0  0  0  0  0  0
    4.8525   -6.0728    0.0000 N   0  0  0  0  0  0  0  0  0  0  0  0
    4.2338   -5.5342    0.0000 N   0  0  0  0  0  0  0  0  0  0  0  0
    4.9728   -7.5337    0.0000 C   0  0  0  0  0  0  0  0  0  0  0  0
   -0.0458   -5.0072    0.0000 C   0  0  0  0  0  0  0  0  0  0  0  0
    4.5775   -8.2556    0.0000 C   0  0  0  0  0  0  0  0  0  0  0  0
    1.2776   -8.3071    0.0000 C   0  0  0  0  0  0  0  0  0  0  0  0
    1.9823   -6.6572    0.0000 O   0  0  0  0  0  0  0  0  0  0  0  0
    3.7526   -8.2728    0.0000 C   0  0  0  0  0  0  0  0  0  0  0  0
   -0.7906   -5.3510    0.0000 C   0  0  0  0  0  0  0  0  0  0  0  0
    3.3343   -7.5681    0.0000 C   0  0  0  0  0  0  0  0  0  0  0  0
    3.3573   -8.9946    0.0000 C   0  0  0  0  0  0  0  0  0  0  0  0
    2.1026   -8.3014    0.0000 C   0  0  0  0  0  0  0  0  0  0  0  0
   -0.5156   -8.1467    0.0000 C   0  0  0  0  0  0  0  0  0  0  0  0
    2.4979   -7.5795    0.0000 C   0  0  0  0  0  0  0  0  0  0  0  0
    2.5265   -9.0060    0.0000 C   0  0  0  0  0  0  0  0  0  0  0  0
    1.3807   -5.1275    0.0000 C   0  0  0  0  0  0  0  0  0  0  0  0
    5.7978   -7.5165    0.0000 C   0  0  0  0  0  0  0  0  0  0  0  0
    0.0230   -4.1822    0.0000 C   0  0  0  0  0  0  0  0  0  0  0  0
    5.0014   -8.9602    0.0000 C   0  0  0  0  0  0  0  0  0  0  0  0
   -1.4723   -4.8869    0.0000 C   0  0  0  0  0  0  0  0  0  0  0  0
   -0.8536   -6.1759    0.0000 C   0  0  0  0  0  0  0  0  0  0  0  0
   -1.3234   -7.9806    0.0000 C   0  0  0  0  0  0  0  0  0  0  0  0
   -1.8676   -8.5993    0.0000 C   0  0  0  0  0  0  0  0  0  0  0  0
    1.4495   -4.3140    0.0000 C   0  0  0  0  0  0  0  0  0  0  0  0
    5.8264   -8.9431    0.0000 C   0  0  0  0  0  0  0  0  0  0  0  0
    6.2275   -8.2212    0.0000 C   0  0  0  0  0  0  0  0  0  0  0  0
    0.7792   -3.8385    0.0000 C   0  0  0  0  0  0  0  0  0  0  0  0
   -2.6754   -8.4446    0.0000 C   0  0  0  0  0  0  0  0  0  0  0  0
   -1.5984   -6.5311    0.0000 C   0  0  0  0  0  0  0  0  0  0  0  0
   -2.2114   -5.2306    0.0000 C   0  0  0  0  0  0  0  0  0  0  0  0
   -2.2801   -6.0556    0.0000 C   0  0  0  0  0  0  0  0  0  0  0  0
  2  3  1  0
  3  1  1  0
  4  1  1  0
  5  4  2  0
  6 12  1  0
  7  6  1  0
  8  1  1  0
  9  7  1  0
 10  6  2  0
 11 10  1  0
 12 14  1  0
 13  8  1  0
 14 17  1  0
 15  2  1  0
 16  3  2  0
 17 20  2  0
 18 13  1  0
 19 23  2  0
 20 24  1  0
 21 15  1  0
 22  5  1  0
 23 21  1  0
 24 21  2  0
 25  8  2  0
 26 12  2  0
 27 13  2  0
 28 14  2  0
 29 18  2  0
 30 18  1  0
 31 22  1  0
 32 31  1  0
 33 25  1  0
 34 28  1  0
 35 34  2  0
 36 33  2  0
 37 32  1  0
 38 30  2  0
 39 29  1  0
 40 38  1  0
  2  5  1  0
 36 27  1  0
 40 39  2  0
 19 17  1  0
 26 35  1  0
  9 11  2  0
M  END
>  <From>  (1) 
www.bindingDB.org

>  <BindingDB Reactant_set_id>  (1) 
50060540

>  <Ligand InChI>  (1) 
InChI=1S/C32H29N7O/c1-2-3-17-30-35-39(29-16-10-9-14-27(29)24-11-5-4-6-12-24)32(40)38(30)22-23-18-20-25(21-19-23)26-13-7-8-15-28(26)31-33-36-37-34-31/h4-16,18-21H,2-3,17,22H2,1H3,(H,33,34,36,37)

>  <Ligand InChI Key>  (1) 
HAIVKSHDQLOZEG-UHFFFAOYSA-N

>  <BindingDB MonomerID>  (1) 
50044534

>  <BindingDB Ligand Name>  (1) 
2-Biphenyl-2-yl-5-butyl-4-[2'-(2H-tetrazol-5-yl)-biphenyl-4-ylmethyl]-2,4-dihydro-[1,2,4]triazol-3-one::CHEMBL315776

>  <Target Name>  (1) 
Type-1 angiotensin II receptor

>  <Target Source Organism According to Curator or DataSource>  (1) 
Oryctolagus cuniculus

>  <Ki (nM)>  (1) 


>  <IC50 (nM)>  (1) 
 3.6

>  <Kd (nM)>  (1) 


>  <EC50 (nM)>  (1) 


>  <kon (M-1-s-1)>  (1) 


>  <koff (s-1)>  (1) 


>  <pH>  (1) 


>  <Temp C>  (1) 


>  <Curation/DataSource>  (1) 
ChEMBL

>  <Article DOI>  (1) 
10.1021/jm00069a015

>  <BindingDB Entry DOI>  (1) 
10.7270/Q2KP817C

>  <PMID>  (1) 
8355255

>  <PubChem AID>  (1) 


>  <Patent Number>  (1) 


>  <Authors>  (1) 
Chang, LL; Ashton, WT; Flanagan, KL; Strelitz, RA; MacCoss, M; Greenlee, WJ; Chang, RS; Lotti, VJ; Faust, KA; Chen, TB

>  <Institution>  (1) 
Merck Research Laboratories

>  <Link to Ligand in BindingDB>  (1) 
http://www.bindingdb.org/bind/chemsearch/marvin/MolStructure.jsp?monomerid=50044534

>  <Link to Ligand-Target Pair in BindingDB>  (1) 
http://www.bindingdb.org/jsp/dbsearch/PrimarySearch_ki.jsp?energyterm=kJ/mole&tag=r21&monomerid=50044534&enzyme=Type-1+angiotensin+II+receptor&column=ki&startPg=0&Increment=50&submit=Search

>  <Ligand HET ID in PDB>  (1) 


>  <PDB ID(s) for Ligand-Target Complex>  (1) 


>  <PubChem CID of Ligand>  (1) 
14956753

>  <PubChem SID of Ligand>  (1) 
103975772

>  <ChEBI ID of Ligand>  (1) 


>  <ChEMBL ID of Ligand>  (1) 
CHEMBL315776

>  <DrugBank ID of Ligand>  (1) 


>  <IUPHAR_GRAC ID of Ligand>  (1) 


>  <KEGG ID of Ligand>  (1) 


>  <ZINC ID of Ligand>  (1) 
ZINC13832647

>  <Number of Protein Chains in Target (bigger than 1 implies a multichain complex)>  (1) 
1

>  <BindingDB Target Chain Sequence>  (1) 
MMLNSSTEDGIKRIQDDCPKAGRHNYIFVMIPTLYSIIFVVGIFGNSLAVIVIYFYMKLKTVASVFLLNLALADLCFLLTLPLWAVYTAMEYRWPFGNYLCKIASASVSFNLYASVFLLTCLSIDRYLAIVHPMKSRLRRTMLVAKVTCIIIWLLAGLASLPAIIHRNVFFIENTNITVCAFHYESQNSTLPIGLGLTKNILGFLFPFLIILTSYTLIWKALKKAYEIQKNKPRNDDIFKIIMAIVLFFFFSWVPHQIFTFLDVLIQLGVIHDCRIADIVDTAMPITICIAYFNNCLNPLFYGFLGKKFKKYFLQLLKYIPPKAKSHSNLSTKMSTLSYRPSDNVSSSSKKPVPCFEVE

>  <PDB ID(s) of Target Chain>  (1) 
6DO1,6OS0,6OS1,6OS2

>  <UniProt (SwissProt) Recommended Name of Target Chain>  (1) 
Type-1 angiotensin II receptor

>  <UniProt (SwissProt) Entry Name of Target Chain>  (1) 
AGTR1_RABIT

>  <UniProt (SwissProt) Primary ID of Target Chain>  (1) 
P34976

>  <UniProt (SwissProt) Secondary ID(s) of Target Chain>  (1) 


>  <UniProt (SwissProt) Alternative ID(s) of Target Chain>  (1) 


>  <UniProt (TrEMBL) Submitted Name of Target Chain>  (1) 


>  <UniProt (TrEMBL) Entry Name of Target Chain>  (1) 


>  <UniProt (TrEMBL) Primary ID of Target Chain>  (1) 


>  <UniProt (TrEMBL) Secondary ID(s) of Target Chain>  (1) 


>  <UniProt (TrEMBL) Alternative ID(s) of Target Chain>  (1) 


$$$$
