
     RDKit          2D

 32 35  0  0  0  0  0  0  0  0999 V2000
    3.8875   -2.9417    0.0000 N   0  0  0  0  0  0  0  0  0  0  0  0
    4.6667   -2.6917    0.0000 C   0  0  0  0  0  0  0  0  0  0  0  0
    3.8875   -1.6125    0.0000 N   0  0  0  0  0  0  0  0  0  0  0  0
    3.4000   -2.2792    0.0000 C   0  0  0  0  0  0  0  0  0  0  0  0
    4.6667   -1.8667    0.0000 C   0  0  0  0  0  0  0  0  0  0  0  0
    5.3792   -3.1042    0.0000 N   0  0  0  0  0  0  0  0  0  0  0  0
    6.3250   -5.5792    0.0000 N   0  0  0  0  0  0  0  0  0  0  0  0
    7.0375   -5.1667    0.0000 C   0  0  0  0  0  0  0  0  0  0  0  0
    5.3792   -1.4500    0.0000 C   0  0  0  0  0  0  0  0  0  0  0  0
    7.0542   -4.3417    0.0000 C   0  0  0  0  0  0  0  0  0  0  0  0
    3.6250   -3.7292    0.0000 C   0  0  0  0  0  0  0  0  0  0  0  0
    5.6125   -5.1667    0.0000 C   0  0  0  0  0  0  0  0  0  0  0  0
    6.1000   -2.6917    0.0000 C   0  0  0  0  0  0  0  0  0  0  0  0
    6.1000   -1.8625    0.0000 C   0  0  0  0  0  0  0  0  0  0  0  0
    6.3500   -3.9125    0.0000 O   0  0  0  0  0  0  0  0  0  0  0  0
    7.7500   -5.5792    0.0000 C   0  0  0  0  0  0  0  0  0  0  0  0
    4.8917   -5.5792    0.0000 C   0  0  0  0  0  0  0  0  0  0  0  0
    5.6042   -4.3417    0.0000 C   0  0  0  0  0  0  0  0  0  0  0  0
    4.1750   -4.3417    0.0000 C   0  0  0  0  0  0  0  0  0  0  0  0
    7.7750   -3.9417    0.0000 O   0  0  0  0  0  0  0  0  0  0  0  0
    2.5750   -2.2750    0.0000 C   0  0  0  0  0  0  0  0  0  0  0  0
    4.1750   -5.1667    0.0000 C   0  0  0  0  0  0  0  0  0  0  0  0
    4.8875   -3.9292    0.0000 C   0  0  0  0  0  0  0  0  0  0  0  0
    6.3250   -6.4042    0.0000 C   0  0  0  0  0  0  0  0  0  0  0  0
    5.3750   -0.6250    0.0000 C   0  0  0  0  0  0  0  0  0  0  0  0
    6.8125   -3.1042    0.0000 C   0  0  0  0  0  0  0  0  0  0  0  0
    7.7500   -6.4042    0.0000 C   0  0  0  0  0  0  0  0  0  0  0  0
    8.4667   -5.1667    0.0000 C   0  0  0  0  0  0  0  0  0  0  0  0
    2.1625   -1.5625    0.0000 C   0  0  0  0  0  0  0  0  0  0  0  0
    9.1750   -5.5667    0.0000 C   0  0  0  0  0  0  0  0  0  0  0  0
    8.4667   -6.8125    0.0000 C   0  0  0  0  0  0  0  0  0  0  0  0
    9.1792   -6.4000    0.0000 C   0  0  0  0  0  0  0  0  0  0  0  0
  2  1  1  0
  3  4  2  0
  4  1  1  0
  5  2  2  0
  6  2  1  0
  7 12  1  0
  8  7  1  0
  9  5  1  0
 10  8  1  0
 11  1  1  0
 12 18  2  0
 13  6  2  0
 14 13  1  0
 15 10  2  0
 16  8  1  0
 17 22  2  0
 18 23  1  0
 19 11  1  0
 20 10  1  0
 21  4  1  0
 22 19  1  0
 23 19  2  0
 24  7  1  0
 25  9  1  0
 26 13  1  0
 27 16  2  0
 28 16  1  0
 29 21  1  0
 30 28  2  0
 31 27  1  0
 32 30  1  0
  5  3  1  0
 17 12  1  0
  9 14  2  0
 31 32  2  0
M  END
>  <From>  (1) 
www.bindingDB.org

>  <BindingDB Reactant_set_id>  (1) 
50062217

>  <Ligand InChI>  (1) 
InChI=1S/C26H28N4O2/c1-5-22-28-23-17(2)15-18(3)27-25(23)30(22)16-19-11-13-21(14-12-19)29(4)24(26(31)32)20-9-7-6-8-10-20/h6-15,24H,5,16H2,1-4H3,(H,31,32)

>  <Ligand InChI Key>  (1) 
SLDCMEISYKBOIQ-UHFFFAOYSA-N

>  <BindingDB MonomerID>  (1) 
50043475

>  <BindingDB Ligand Name>  (1) 
CHEMBL135345::{[4-(2-Ethyl-5,7-dimethyl-imidazo[4,5-b]pyridin-3-ylmethyl)-phenyl]-methyl-amino}-phenyl-acetic acid

>  <Target Name>  (1) 
Type-1 angiotensin II receptor

>  <Target Source Organism According to Curator or DataSource>  (1) 
Oryctolagus cuniculus

>  <Ki (nM)>  (1) 


>  <IC50 (nM)>  (1) 
 8.2

>  <Kd (nM)>  (1) 


>  <EC50 (nM)>  (1) 


>  <kon (M-1-s-1)>  (1) 


>  <koff (s-1)>  (1) 


>  <pH>  (1) 


>  <Temp C>  (1) 


>  <Curation/DataSource>  (1) 
ChEMBL

>  <Article DOI>  (1) 
10.1021/jm00078a014

>  <BindingDB Entry DOI>  (1) 
10.7270/Q22V2F6P

>  <PMID>  (1) 
8277506

>  <PubChem AID>  (1) 


>  <Patent Number>  (1) 


>  <Authors>  (1) 
Dhanoa, DS; Bagley, SW; Chang, RS; Lotti, VJ; Chen, TB; Kivlighn, SD; Zingaro, GJ; Siegl, PK; Patchett, AA; Greenlee, WJ

>  <Institution>  (1) 
Merck Research Laboratories

>  <Link to Ligand in BindingDB>  (1) 
http://www.bindingdb.org/bind/chemsearch/marvin/MolStructure.jsp?monomerid=50043475

>  <Link to Ligand-Target Pair in BindingDB>  (1) 
http://www.bindingdb.org/jsp/dbsearch/PrimarySearch_ki.jsp?energyterm=kJ/mole&tag=r21&monomerid=50043475&enzyme=Type-1+angiotensin+II+receptor&column=ki&startPg=0&Increment=50&submit=Search

>  <Ligand HET ID in PDB>  (1) 


>  <PDB ID(s) for Ligand-Target Complex>  (1) 


>  <PubChem CID of Ligand>  (1) 
10365283

>  <PubChem SID of Ligand>  (1) 
103974903

>  <ChEBI ID of Ligand>  (1) 


>  <ChEMBL ID of Ligand>  (1) 
CHEMBL135345

>  <DrugBank ID of Ligand>  (1) 


>  <IUPHAR_GRAC ID of Ligand>  (1) 


>  <KEGG ID of Ligand>  (1) 


>  <ZINC ID of Ligand>  (1) 
ZINC13732456

>  <Number of Protein Chains in Target (bigger than 1 implies a multichain complex)>  (1) 
1

>  <BindingDB Target Chain Sequence>  (1) 
MMLNSSTEDGIKRIQDDCPKAGRHNYIFVMIPTLYSIIFVVGIFGNSLAVIVIYFYMKLKTVASVFLLNLALADLCFLLTLPLWAVYTAMEYRWPFGNYLCKIASASVSFNLYASVFLLTCLSIDRYLAIVHPMKSRLRRTMLVAKVTCIIIWLLAGLASLPAIIHRNVFFIENTNITVCAFHYESQNSTLPIGLGLTKNILGFLFPFLIILTSYTLIWKALKKAYEIQKNKPRNDDIFKIIMAIVLFFFFSWVPHQIFTFLDVLIQLGVIHDCRIADIVDTAMPITICIAYFNNCLNPLFYGFLGKKFKKYFLQLLKYIPPKAKSHSNLSTKMSTLSYRPSDNVSSSSKKPVPCFEVE

>  <PDB ID(s) of Target Chain>  (1) 
6DO1,6OS0,6OS1,6OS2

>  <UniProt (SwissProt) Recommended Name of Target Chain>  (1) 
Type-1 angiotensin II receptor

>  <UniProt (SwissProt) Entry Name of Target Chain>  (1) 
AGTR1_RABIT

>  <UniProt (SwissProt) Primary ID of Target Chain>  (1) 
P34976

>  <UniProt (SwissProt) Secondary ID(s) of Target Chain>  (1) 


>  <UniProt (SwissProt) Alternative ID(s) of Target Chain>  (1) 


>  <UniProt (TrEMBL) Submitted Name of Target Chain>  (1) 


>  <UniProt (TrEMBL) Entry Name of Target Chain>  (1) 


>  <UniProt (TrEMBL) Primary ID of Target Chain>  (1) 


>  <UniProt (TrEMBL) Secondary ID(s) of Target Chain>  (1) 


>  <UniProt (TrEMBL) Alternative ID(s) of Target Chain>  (1) 


$$$$
