
     RDKit          2D

 49 54  0  0  0  0  0  0  0  0999 V2000
    3.5667    1.0750    0.0000 N   0  0  0  0  0  0  0  0  0  0  0  0
    2.8750   -2.6375    0.0000 S   0  0  0  0  0  0  0  0  0  0  0  0
    4.2292    1.5583    0.0000 C   0  0  0  0  0  0  0  0  0  0  0  0
    3.1417    2.3375    0.0000 N   0  0  0  0  0  0  0  0  0  0  0  0
    2.1542   -2.2292    0.0000 N   0  0  0  0  0  0  0  0  0  0  0  0
    2.8917    1.5583    0.0000 C   0  0  0  0  0  0  0  0  0  0  0  0
    3.9667    2.3458    0.0000 C   0  0  0  0  0  0  0  0  0  0  0  0
    1.4417   -2.6417    0.0000 C   0  0  0  0  0  0  0  0  0  0  0  0
    5.0375    1.3875    0.0000 N   0  0  0  0  0  0  0  0  0  0  0  0
    0.7292   -2.2292    0.0000 C   0  0  0  0  0  0  0  0  0  0  0  0
    0.7250   -1.4042    0.0000 O   0  0  0  0  0  0  0  0  0  0  0  0
    0.0167   -2.6500    0.0000 C   0  0  0  0  0  0  0  0  0  0  0  0
    4.5167    2.9583    0.0000 C   0  0  0  0  0  0  0  0  0  0  0  0
    3.5875   -2.2167    0.0000 C   0  0  0  0  0  0  0  0  0  0  0  0
    1.4375   -0.9917    0.0000 C   0  0  0  0  0  0  0  0  0  0  0  0
    3.5667    0.2500    0.0000 C   0  0  0  0  0  0  0  0  0  0  0  0
   -1.4208   -2.6500    0.0000 C   0  0  0  0  0  0  0  0  0  0  0  0
   -0.7000   -2.2375    0.0000 C   0  0  0  0  0  0  0  0  0  0  0  0
    2.8750   -3.4625    0.0000 O   0  0  0  0  0  0  0  0  0  0  0  0
    2.6542   -1.8417    0.0000 O   0  0  0  0  0  0  0  0  0  0  0  0
    1.4292   -0.1750    0.0000 C   0  0  0  0  0  0  0  0  0  0  0  0
    1.4417   -3.4667    0.0000 O   0  0  0  0  0  0  0  0  0  0  0  0
    5.5875    2.0083    0.0000 C   0  0  0  0  0  0  0  0  0  0  0  0
    5.3250    2.7958    0.0000 C   0  0  0  0  0  0  0  0  0  0  0  0
   -2.2083   -2.3917    0.0000 O   0  0  0  0  0  0  0  0  0  0  0  0
   -1.4125   -3.4792    0.0000 C   0  0  0  0  0  0  0  0  0  0  0  0
    2.8542   -0.1667    0.0000 C   0  0  0  0  0  0  0  0  0  0  0  0
    2.1292    0.2458    0.0000 C   0  0  0  0  0  0  0  0  0  0  0  0
    0.0167   -3.4792    0.0000 C   0  0  0  0  0  0  0  0  0  0  0  0
    5.0042   -1.3917    0.0000 C   0  0  0  0  0  0  0  0  0  0  0  0
    4.3000   -2.6292    0.0000 C   0  0  0  0  0  0  0  0  0  0  0  0
    3.5792   -1.4000    0.0000 C   0  0  0  0  0  0  0  0  0  0  0  0
    2.1500   -1.4042    0.0000 C   0  0  0  0  0  0  0  0  0  0  0  0
   -0.7000   -3.8917    0.0000 C   0  0  0  0  0  0  0  0  0  0  0  0
    4.2875   -0.9792    0.0000 C   0  0  0  0  0  0  0  0  0  0  0  0
    5.0125   -2.2167    0.0000 C   0  0  0  0  0  0  0  0  0  0  0  0
    2.8625   -0.9917    0.0000 C   0  0  0  0  0  0  0  0  0  0  0  0
    2.1125    1.2958    0.0000 C   0  0  0  0  0  0  0  0  0  0  0  0
    5.7167   -0.9792    0.0000 C   0  0  0  0  0  0  0  0  0  0  0  0
   -2.6958   -3.0667    0.0000 C   0  0  0  0  0  0  0  0  0  0  0  0
    4.2542    3.7458    0.0000 C   0  0  0  0  0  0  0  0  0  0  0  0
    0.7042    0.2333    0.0000 C   0  0  0  0  0  0  0  0  0  0  0  0
   -2.2000   -3.7375    0.0000 C   0  0  0  0  0  0  0  0  0  0  0  0
    6.3917    1.8375    0.0000 C   0  0  0  0  0  0  0  0  0  0  0  0
    6.4375   -1.3875    0.0000 C   0  0  0  0  0  0  0  0  0  0  0  0
    5.7167   -0.1542    0.0000 C   0  0  0  0  0  0  0  0  0  0  0  0
    0.0000   -0.1875    0.0000 C   0  0  0  0  0  0  0  0  0  0  0  0
    1.4917    1.8458    0.0000 C   0  0  0  0  0  0  0  0  0  0  0  0
   -0.7208    0.2208    0.0000 C   0  0  0  0  0  0  0  0  0  0  0  0
  2  5  1  0
  3  1  1  0
  4  6  2  0
  5  8  1  0
  6  1  1  0
  7  3  2  0
  8 10  1  0
  9  3  1  0
 10 11  1  0
 11 15  1  0
 12 10  1  0
 13  7  1  0
 14  2  1  0
 15 33  2  0
 16  1  1  0
 17 18  2  0
 18 12  1  0
 19  2  2  0
 20  2  2  0
 21 28  2  0
 22  8  2  0
 23  9  2  0
 24 23  1  0
 25 17  1  0
 26 34  2  0
 27 16  1  0
 28 27  1  0
 29 12  2  0
 30 35  2  0
 31 14  1  0
 32 14  2  0
 33 37  1  0
 34 29  1  0
 35 32  1  0
 36 31  2  0
 37 27  2  0
 38  6  1  0
 39 30  1  0
 40 25  1  0
 41 13  1  0
 42 21  1  0
 43 26  1  0
 44 23  1  0
 45 39  1  0
 46 39  1  0
 47 42  1  0
 48 38  1  0
 49 47  1  0
  4  7  1  0
 15 21  1  0
 13 24  2  0
 26 17  1  0
 43 40  1  0
 30 36  1  0
M  END
>  <From>  (1) 
www.bindingDB.org

>  <BindingDB Reactant_set_id>  (1) 
50833727

>  <Ligand InChI>  (1) 
InChI=1S/C39H44N4O5S/c1-7-9-30-21-27(23-43-35(8-2)41-36-25(5)20-26(6)40-38(36)43)10-17-33(30)48-37(31-12-11-29-18-19-47-34(29)22-31)39(44)42-49(45,46)32-15-13-28(14-16-32)24(3)4/h10-17,20-22,24,37H,7-9,18-19,23H2,1-6H3,(H,42,44)

>  <Ligand InChI Key>  (1) 
WQLXYQSKSGEIPU-UHFFFAOYSA-N

>  <BindingDB MonomerID>  (1) 
50175506

>  <BindingDB Ligand Name>  (1) 
CHEMBL372814::N-{2-(2,3-Dihydro-benzofuran-6-yl)-2-[4-(2-ethyl-5,7-dimethyl-imidazo[4,5-b]pyridin-3-ylmethyl)-2-propyl-phenoxy]-acetyl}-4-isopropyl-benzenesulfonamide

>  <Target Name>  (1) 
Type-1 angiotensin II receptor

>  <Target Source Organism According to Curator or DataSource>  (1) 
Homo sapiens

>  <Ki (nM)>  (1) 


>  <IC50 (nM)>  (1) 
 13

>  <Kd (nM)>  (1) 


>  <EC50 (nM)>  (1) 


>  <kon (M-1-s-1)>  (1) 


>  <koff (s-1)>  (1) 


>  <pH>  (1) 


>  <Temp C>  (1) 


>  <Curation/DataSource>  (1) 
ChEMBL

>  <Article DOI>  (1) 
10.1021/jm058225d

>  <BindingDB Entry DOI>  (1) 
10.7270/Q2SF2WZ9

>  <PMID>  (1) 
16220969

>  <PubChem AID>  (1) 


>  <Patent Number>  (1) 


>  <Authors>  (1) 
Morphy, R; Rankovic, Z

>  <Institution>  (1) 
Organon Laboratories

>  <Link to Ligand in BindingDB>  (1) 
http://www.bindingdb.org/bind/chemsearch/marvin/MolStructure.jsp?monomerid=50175506

>  <Link to Ligand-Target Pair in BindingDB>  (1) 
http://www.bindingdb.org/jsp/dbsearch/PrimarySearch_ki.jsp?energyterm=kJ/mole&tag=r21&monomerid=50175506&enzyme=Type-1+angiotensin+II+receptor&column=ki&startPg=0&Increment=50&submit=Search

>  <Ligand HET ID in PDB>  (1) 


>  <PDB ID(s) for Ligand-Target Complex>  (1) 


>  <PubChem CID of Ligand>  (1) 
44404967

>  <PubChem SID of Ligand>  (1) 
104061199

>  <ChEBI ID of Ligand>  (1) 


>  <ChEMBL ID of Ligand>  (1) 
CHEMBL372814

>  <DrugBank ID of Ligand>  (1) 


>  <IUPHAR_GRAC ID of Ligand>  (1) 


>  <KEGG ID of Ligand>  (1) 


>  <ZINC ID of Ligand>  (1) 
ZINC28528766

>  <Number of Protein Chains in Target (bigger than 1 implies a multichain complex)>  (1) 
1

>  <BindingDB Target Chain Sequence>  (1) 
MILNSSTEDGIKRIQDDCPKAGRHNYIFVMIPTLYSIIFVVGIFGNSLVVIVIYFYMKLKTVASVFLLNLALADLCFLLTLPLWAVYTAMEYRWPFGNYLCKIASASVSFNLYASVFLLTCLSIDRYLAIVHPMKSRLRRTMLVAKVTCIIIWLLAGLASLPAIIHRNVFFIENTNITVCAFHYESQNSTLPIGLGLTKNILGFLFPFLIILTSYTLIWKALKKAYEIQKNKPRNDDIFKIIMAIVLFFFFSWIPHQIFTFLDVLIQLGIIRDCRIADIVDTAMPITICIAYFNNCLNPLFYGFLGKKFKRYFLQLLKYIPPKAKSHSNLSTKMSTLSYRPSDNVSSSTKKPAPCFEVE

>  <PDB ID(s) of Target Chain>  (1) 
6DO1,6OS0,6OS1,6OS2

>  <UniProt (SwissProt) Recommended Name of Target Chain>  (1) 
Type-1 angiotensin II receptor

>  <UniProt (SwissProt) Entry Name of Target Chain>  (1) 
AGTR1_HUMAN

>  <UniProt (SwissProt) Primary ID of Target Chain>  (1) 
P30556

>  <UniProt (SwissProt) Secondary ID(s) of Target Chain>  (1) 
Q13725 Q8TBK4

>  <UniProt (SwissProt) Alternative ID(s) of Target Chain>  (1) 


>  <UniProt (TrEMBL) Submitted Name of Target Chain>  (1) 


>  <UniProt (TrEMBL) Entry Name of Target Chain>  (1) 


>  <UniProt (TrEMBL) Primary ID of Target Chain>  (1) 


>  <UniProt (TrEMBL) Secondary ID(s) of Target Chain>  (1) 


>  <UniProt (TrEMBL) Alternative ID(s) of Target Chain>  (1) 


$$$$
