
     RDKit          2D

 38 43  0  0  0  0  0  0  0  0999 V2000
    2.9102   -2.2296    0.0000 C   0  0  0  0  0  0  0  0  0  0  0  0
    2.9102   -1.3946    0.0000 N   0  0  0  0  0  0  0  0  0  0  0  0
    3.7119   -2.4801    0.0000 N   0  0  0  0  0  0  0  0  0  0  0  0
    3.6994   -1.1315    0.0000 N   0  0  0  0  0  0  0  0  0  0  0  0
    2.1837   -2.6472    0.0000 N   0  0  0  0  0  0  0  0  0  0  0  0
    4.1962   -1.7954    0.0000 C   0  0  0  0  0  0  0  0  0  0  0  0
    2.1837   -0.9812    0.0000 C   0  0  0  0  0  0  0  0  0  0  0  0
    1.4697   -1.3946    0.0000 C   0  0  0  0  0  0  0  0  0  0  0  0
    1.4697   -2.2338    0.0000 C   0  0  0  0  0  0  0  0  0  0  0  0
    4.3256   -6.3674    0.0000 C   0  0  0  0  0  0  0  0  0  0  0  0
    3.0230   -6.6429    0.0000 N   0  0  0  0  0  0  0  0  0  0  0  0
    3.5741   -6.0292    0.0000 N   0  0  0  0  0  0  0  0  0  0  0  0
    3.4321   -7.3569    0.0000 N   0  0  0  0  0  0  0  0  0  0  0  0
    4.2380   -7.1899    0.0000 N   0  0  0  0  0  0  0  0  0  0  0  0
    5.0396   -5.9540    0.0000 C   0  0  0  0  0  0  0  0  0  0  0  0
    5.0396   -5.1273    0.0000 C   0  0  0  0  0  0  0  0  0  0  0  0
    2.1837   -3.4739    0.0000 C   0  0  0  0  0  0  0  0  0  0  0  0
    4.3340   -4.7139    0.0000 C   0  0  0  0  0  0  0  0  0  0  0  0
    2.1837   -0.1545    0.0000 O   0  0  0  0  0  0  0  0  0  0  0  0
    5.0146   -1.7912    0.0000 C   0  0  0  0  0  0  0  0  0  0  0  0
    4.3256   -3.8830    0.0000 C   0  0  0  0  0  0  0  0  0  0  0  0
    3.6117   -5.1273    0.0000 C   0  0  0  0  0  0  0  0  0  0  0  0
    2.8977   -3.8872    0.0000 C   0  0  0  0  0  0  0  0  0  0  0  0
    3.6117   -3.4739    0.0000 C   0  0  0  0  0  0  0  0  0  0  0  0
    2.8977   -4.7139    0.0000 C   0  0  0  0  0  0  0  0  0  0  0  0
    0.7558   -2.6472    0.0000 C   0  0  0  0  0  0  0  0  0  0  0  0
    5.7536   -6.3674    0.0000 C   0  0  0  0  0  0  0  0  0  0  0  0
    5.7536   -4.7139    0.0000 C   0  0  0  0  0  0  0  0  0  0  0  0
    5.4237   -1.0689    0.0000 C   0  0  0  0  0  0  0  0  0  0  0  0
    5.4362   -2.5052    0.0000 C   0  0  0  0  0  0  0  0  0  0  0  0
    0.0418   -2.2338    0.0000 C   0  0  0  0  0  0  0  0  0  0  0  0
   -0.6764   -2.6472    0.0000 C   0  0  0  0  0  0  0  0  0  0  0  0
    6.4676   -5.1231    0.0000 C   0  0  0  0  0  0  0  0  0  0  0  0
    6.4759   -5.9540    0.0000 C   0  0  0  0  0  0  0  0  0  0  0  0
   -1.3904   -2.2338    0.0000 C   0  0  0  0  0  0  0  0  0  0  0  0
    6.2421   -1.0564    0.0000 C   0  0  0  0  0  0  0  0  0  0  0  0
    6.2630   -2.4969    0.0000 C   0  0  0  0  0  0  0  0  0  0  0  0
    6.6680   -1.7704    0.0000 C   0  0  0  0  0  0  0  0  0  0  0  0
  2  1  1  0
  3  1  2  0
  4  2  1  0
  5  1  1  0
  6  3  1  0
  7  2  1  0
  8  9  2  0
  9  5  1  0
 10 15  1  0
 11 12  1  0
 12 10  2  0
 13 14  1  0
 14 10  1  0
 15 16  1  0
 16 18  1  0
 17  5  1  0
 18 22  2  0
 19  7  2  0
 20  6  1  0
 21 24  2  0
 22 25  1  0
 23 17  1  0
 24 23  1  0
 25 23  2  0
 26  9  1  0
 27 15  2  0
 28 16  2  0
 29 20  2  0
 30 20  1  0
 31 26  1  0
 32 31  1  0
 33 28  1  0
 34 33  2  0
 35 32  1  0
 36 29  1  0
 37 30  2  0
 38 37  1  0
  6  4  2  0
  8  7  1  0
 18 21  1  0
 36 38  2  0
 27 34  1  0
 11 13  2  0
M  END
>  <From>  (1) 
www.bindingDB.org

>  <BindingDB Reactant_set_id>  (1) 
50473201

>  <Ligand InChI>  (1) 
InChI=1S/C29H26N8O/c1-2-3-11-23-18-26(38)37-29(30-27(33-37)22-9-5-4-6-10-22)36(23)19-20-14-16-21(17-15-20)24-12-7-8-13-25(24)28-31-34-35-32-28/h4-10,12-18H,2-3,11,19H2,1H3,(H,31,32,34,35)

>  <Ligand InChI Key>  (1) 
NYRQQEFQBCBNOY-UHFFFAOYSA-N

>  <BindingDB MonomerID>  (1) 
50285162

>  <BindingDB Ligand Name>  (1) 
5-Butyl-2-phenyl-4-[2'-(1H-tetrazol-5-yl)-biphenyl-4-ylmethyl]-4H-[1,2,4]triazolo[1,5-a]pyrimidin-7-one::CHEMBL293001

>  <Target Name>  (1) 
Type-1 angiotensin II receptor B

>  <Target Source Organism According to Curator or DataSource>  (1) 
Rattus

>  <Ki (nM)>  (1) 


>  <IC50 (nM)>  (1) 
 83

>  <Kd (nM)>  (1) 


>  <EC50 (nM)>  (1) 


>  <kon (M-1-s-1)>  (1) 


>  <koff (s-1)>  (1) 


>  <pH>  (1) 


>  <Temp C>  (1) 


>  <Curation/DataSource>  (1) 
ChEMBL

>  <Article DOI>  (1) 
10.1016/0960-894X(95)00370-9

>  <BindingDB Entry DOI>  (1) 
10.7270/Q2SF2W4J

>  <PMID>  (1) 


>  <PubChem AID>  (1) 


>  <Patent Number>  (1) 


>  <Authors>  (1) 
Dorsch, D; Mederski, WW; Osswald, M; Beier, N; Schelling, P

>  <Institution>  (1) 
TBA

>  <Link to Ligand in BindingDB>  (1) 
http://www.bindingdb.org/bind/chemsearch/marvin/MolStructure.jsp?monomerid=50285162

>  <Link to Ligand-Target Pair in BindingDB>  (1) 
http://www.bindingdb.org/jsp/dbsearch/PrimarySearch_ki.jsp?energyterm=kJ/mole&tag=r21&monomerid=50285162&enzyme=Type-1+angiotensin+II+receptor+B&column=ki&startPg=0&Increment=50&submit=Search

>  <Ligand HET ID in PDB>  (1) 


>  <PDB ID(s) for Ligand-Target Complex>  (1) 


>  <PubChem CID of Ligand>  (1) 
44305654

>  <PubChem SID of Ligand>  (1) 
104126733

>  <ChEBI ID of Ligand>  (1) 


>  <ChEMBL ID of Ligand>  (1) 
CHEMBL293001

>  <DrugBank ID of Ligand>  (1) 


>  <IUPHAR_GRAC ID of Ligand>  (1) 


>  <KEGG ID of Ligand>  (1) 


>  <ZINC ID of Ligand>  (1) 
ZINC26177742

>  <Number of Protein Chains in Target (bigger than 1 implies a multichain complex)>  (1) 
1

>  <BindingDB Target Chain Sequence>  (1) 
MTLNSSTEDGIKRIQDDCPKAGRHNYIFVMIPTLYSIIFVVGIFGNSLVVIVIYFYMKLKTVASVFLLNLALADLCFLLTLPLWAVYTAMEYRWPFGNHLCKIASASVSFNLYASVFLLTCLSIDRYLAIVHPMKSRLRRTMLVAKVTCIIIWLMAGLASLPAVIYRNVYFIENTNITVCAFHYESQNSTLPIGLGLTKNILGFVFPFLIILTSYTLIWKALKKAYKIQKNTPRNDDIFRIIMAIVLFFFFSWVPHQIFTFLDVLIQLGIIRDCEIADIVDTAMPITICIAYFNNCLNPLFYGFLGKKFKKYFLQLLKYIPPTAKSHAGLSTKMSTLSYRPSDNMSSSAKKSASFFEVE

>  <PDB ID(s) of Target Chain>  (1) 


>  <UniProt (SwissProt) Recommended Name of Target Chain>  (1) 
Type-1 angiotensin II receptor B

>  <UniProt (SwissProt) Entry Name of Target Chain>  (1) 
AGTRB_RAT

>  <UniProt (SwissProt) Primary ID of Target Chain>  (1) 
P29089

>  <UniProt (SwissProt) Secondary ID(s) of Target Chain>  (1) 


>  <UniProt (SwissProt) Alternative ID(s) of Target Chain>  (1) 


>  <UniProt (TrEMBL) Submitted Name of Target Chain>  (1) 


>  <UniProt (TrEMBL) Entry Name of Target Chain>  (1) 


>  <UniProt (TrEMBL) Primary ID of Target Chain>  (1) 


>  <UniProt (TrEMBL) Secondary ID(s) of Target Chain>  (1) 


>  <UniProt (TrEMBL) Alternative ID(s) of Target Chain>  (1) 


$$$$
