
     RDKit          2D

 35 38  0  0  0  0  0  0  0  0999 V2000
    3.9417   -2.3917    0.0000 N   0  0  0  0  0  0  0  0  0  0  0  0
    4.7292   -2.1375    0.0000 C   0  0  0  0  0  0  0  0  0  0  0  0
    3.9417   -1.0625    0.0000 N   0  0  0  0  0  0  0  0  0  0  0  0
    3.4625   -1.7250    0.0000 C   0  0  0  0  0  0  0  0  0  0  0  0
    4.7292   -1.3125    0.0000 C   0  0  0  0  0  0  0  0  0  0  0  0
    6.3792   -5.0292    0.0000 N   0  0  0  0  0  0  0  0  0  0  0  0
    5.4417   -2.5500    0.0000 N   0  0  0  0  0  0  0  0  0  0  0  0
    7.1000   -4.6042    0.0000 C   0  0  0  0  0  0  0  0  0  0  0  0
    5.4417   -0.9000    0.0000 C   0  0  0  0  0  0  0  0  0  0  0  0
    7.1167   -3.7792    0.0000 C   0  0  0  0  0  0  0  0  0  0  0  0
    3.6875   -3.1750    0.0000 C   0  0  0  0  0  0  0  0  0  0  0  0
    5.6667   -4.6167    0.0000 C   0  0  0  0  0  0  0  0  0  0  0  0
    6.3875   -5.8542    0.0000 C   0  0  0  0  0  0  0  0  0  0  0  0
    6.1542   -2.1375    0.0000 C   0  0  0  0  0  0  0  0  0  0  0  0
    6.1542   -1.3125    0.0000 C   0  0  0  0  0  0  0  0  0  0  0  0
    6.4125   -3.3542    0.0000 O   0  0  0  0  0  0  0  0  0  0  0  0
    7.8125   -5.0250    0.0000 C   0  0  0  0  0  0  0  0  0  0  0  0
    5.6667   -3.7875    0.0000 C   0  0  0  0  0  0  0  0  0  0  0  0
    4.9542   -5.0292    0.0000 C   0  0  0  0  0  0  0  0  0  0  0  0
    4.2375   -3.7875    0.0000 C   0  0  0  0  0  0  0  0  0  0  0  0
    7.8375   -3.3875    0.0000 O   0  0  0  0  0  0  0  0  0  0  0  0
    2.6292   -1.7250    0.0000 C   0  0  0  0  0  0  0  0  0  0  0  0
    4.2375   -4.6167    0.0000 C   0  0  0  0  0  0  0  0  0  0  0  0
    4.9500   -3.3750    0.0000 C   0  0  0  0  0  0  0  0  0  0  0  0
    5.4375   -0.0750    0.0000 C   0  0  0  0  0  0  0  0  0  0  0  0
    5.6667   -6.2667    0.0000 C   0  0  0  0  0  0  0  0  0  0  0  0
    6.8750   -2.5500    0.0000 C   0  0  0  0  0  0  0  0  0  0  0  0
    7.8125   -5.8500    0.0000 C   0  0  0  0  0  0  0  0  0  0  0  0
    8.5292   -4.6125    0.0000 C   0  0  0  0  0  0  0  0  0  0  0  0
    2.2250   -1.0125    0.0000 C   0  0  0  0  0  0  0  0  0  0  0  0
    5.6667   -7.0917    0.0000 C   0  0  0  0  0  0  0  0  0  0  0  0
    4.9542   -5.8500    0.0000 C   0  0  0  0  0  0  0  0  0  0  0  0
    9.2375   -5.0167    0.0000 C   0  0  0  0  0  0  0  0  0  0  0  0
    8.5292   -6.2625    0.0000 C   0  0  0  0  0  0  0  0  0  0  0  0
    9.2417   -5.8500    0.0000 C   0  0  0  0  0  0  0  0  0  0  0  0
  2  1  1  0
  3  4  2  0
  4  1  1  0
  5  2  2  0
  6 12  1  0
  7  2  1  0
  8  6  1  0
  9  5  1  0
 10  8  1  0
 11  1  1  0
 12 18  2  0
 13  6  1  0
 14  7  2  0
 15 14  1  0
 16 10  2  0
 17  8  1  0
 18 24  1  0
 19 23  2  0
 20 11  1  0
 21 10  1  0
 22  4  1  0
 23 20  1  0
 24 20  2  0
 25  9  1  0
 26 13  1  0
 27 14  1  0
 28 17  2  0
 29 17  1  0
 30 22  1  0
 31 26  1  0
 32 26  1  0
 33 29  2  0
 34 28  1  0
 35 33  1  0
  5  3  1  0
 19 12  1  0
  9 15  2  0
 34 35  2  0
M  END
>  <From>  (1) 
www.bindingDB.org

>  <BindingDB Reactant_set_id>  (1) 
50062208

>  <Ligand InChI>  (1) 
InChI=1S/C29H34N4O2/c1-6-25-31-26-20(4)16-21(5)30-28(26)33(25)18-22-12-14-24(15-13-22)32(17-19(2)3)27(29(34)35)23-10-8-7-9-11-23/h7-16,19,27H,6,17-18H2,1-5H3,(H,34,35)

>  <Ligand InChI Key>  (1) 
NTURMOAHSWNKGC-UHFFFAOYSA-N

>  <BindingDB MonomerID>  (1) 
50043467

>  <BindingDB Ligand Name>  (1) 
CHEMBL136028::{[4-(2-Ethyl-5,7-dimethyl-imidazo[4,5-b]pyridin-3-ylmethyl)-phenyl]-isobutyl-amino}-phenyl-acetic acid

>  <Target Name>  (1) 
Type-1 angiotensin II receptor

>  <Target Source Organism According to Curator or DataSource>  (1) 
Oryctolagus cuniculus

>  <Ki (nM)>  (1) 


>  <IC50 (nM)>  (1) 
 22

>  <Kd (nM)>  (1) 


>  <EC50 (nM)>  (1) 


>  <kon (M-1-s-1)>  (1) 


>  <koff (s-1)>  (1) 


>  <pH>  (1) 


>  <Temp C>  (1) 


>  <Curation/DataSource>  (1) 
ChEMBL

>  <Article DOI>  (1) 
10.1021/jm00078a014

>  <BindingDB Entry DOI>  (1) 
10.7270/Q22V2F6P

>  <PMID>  (1) 
8277506

>  <PubChem AID>  (1) 


>  <Patent Number>  (1) 


>  <Authors>  (1) 
Dhanoa, DS; Bagley, SW; Chang, RS; Lotti, VJ; Chen, TB; Kivlighn, SD; Zingaro, GJ; Siegl, PK; Patchett, AA; Greenlee, WJ

>  <Institution>  (1) 
Merck Research Laboratories

>  <Link to Ligand in BindingDB>  (1) 
http://www.bindingdb.org/bind/chemsearch/marvin/MolStructure.jsp?monomerid=50043467

>  <Link to Ligand-Target Pair in BindingDB>  (1) 
http://www.bindingdb.org/jsp/dbsearch/PrimarySearch_ki.jsp?energyterm=kJ/mole&tag=r21&monomerid=50043467&enzyme=Type-1+angiotensin+II+receptor&column=ki&startPg=0&Increment=50&submit=Search

>  <Ligand HET ID in PDB>  (1) 


>  <PDB ID(s) for Ligand-Target Complex>  (1) 


>  <PubChem CID of Ligand>  (1) 
9982177

>  <PubChem SID of Ligand>  (1) 
103974895

>  <ChEBI ID of Ligand>  (1) 


>  <ChEMBL ID of Ligand>  (1) 
CHEMBL136028

>  <DrugBank ID of Ligand>  (1) 


>  <IUPHAR_GRAC ID of Ligand>  (1) 


>  <KEGG ID of Ligand>  (1) 


>  <ZINC ID of Ligand>  (1) 
ZINC13732480

>  <Number of Protein Chains in Target (bigger than 1 implies a multichain complex)>  (1) 
1

>  <BindingDB Target Chain Sequence>  (1) 
MMLNSSTEDGIKRIQDDCPKAGRHNYIFVMIPTLYSIIFVVGIFGNSLAVIVIYFYMKLKTVASVFLLNLALADLCFLLTLPLWAVYTAMEYRWPFGNYLCKIASASVSFNLYASVFLLTCLSIDRYLAIVHPMKSRLRRTMLVAKVTCIIIWLLAGLASLPAIIHRNVFFIENTNITVCAFHYESQNSTLPIGLGLTKNILGFLFPFLIILTSYTLIWKALKKAYEIQKNKPRNDDIFKIIMAIVLFFFFSWVPHQIFTFLDVLIQLGVIHDCRIADIVDTAMPITICIAYFNNCLNPLFYGFLGKKFKKYFLQLLKYIPPKAKSHSNLSTKMSTLSYRPSDNVSSSSKKPVPCFEVE

>  <PDB ID(s) of Target Chain>  (1) 
6DO1,6OS0,6OS1,6OS2

>  <UniProt (SwissProt) Recommended Name of Target Chain>  (1) 
Type-1 angiotensin II receptor

>  <UniProt (SwissProt) Entry Name of Target Chain>  (1) 
AGTR1_RABIT

>  <UniProt (SwissProt) Primary ID of Target Chain>  (1) 
P34976

>  <UniProt (SwissProt) Secondary ID(s) of Target Chain>  (1) 


>  <UniProt (SwissProt) Alternative ID(s) of Target Chain>  (1) 


>  <UniProt (TrEMBL) Submitted Name of Target Chain>  (1) 


>  <UniProt (TrEMBL) Entry Name of Target Chain>  (1) 


>  <UniProt (TrEMBL) Primary ID of Target Chain>  (1) 


>  <UniProt (TrEMBL) Secondary ID(s) of Target Chain>  (1) 


>  <UniProt (TrEMBL) Alternative ID(s) of Target Chain>  (1) 


$$$$
