
     RDKit          2D

 37 40  0  0  0  0  0  0  0  0999 V2000
    9.2018  -11.3201    0.0000 C   0  0  0  0  0  0  0  0  0  0  0  0
   14.1501  -10.2973    0.0000 C   0  0  0  0  0  0  0  0  0  0  0  0
   12.2536   -9.0810    0.0000 O   0  0  0  0  0  0  0  0  0  0  0  0
   11.2767  -10.8505    0.0000 C   0  0  0  0  0  0  0  0  0  0  0  0
   13.9197  -13.1570    0.0000 C   0  0  0  0  0  0  0  0  0  0  0  0
   11.9883  -11.2662    0.0000 C   0  0  0  0  0  0  0  0  0  0  0  0
   13.4971   -9.7982    0.0000 C   0  0  0  0  0  0  0  0  0  0  0  0
   10.5627  -11.2620    0.0000 C   0  0  0  0  0  0  0  0  0  0  0  0
    9.8855  -12.5745    0.0000 C   0  0  0  0  0  0  0  0  0  0  0  0
   11.9856   -9.6160    0.0000 C   0  0  0  0  0  0  0  0  0  0  0  0
   13.7675   -9.0234    0.0000 C   0  0  0  0  0  0  0  0  0  0  0  0
   12.6513  -12.7355    0.0000 C   0  0  0  0  0  0  0  0  0  0  0  0
   14.8286   -9.8321    0.0000 C   0  0  0  0  0  0  0  0  0  0  0  0
   11.9850  -12.2450    0.0000 C   0  0  0  0  0  0  0  0  0  0  0  0
   12.6469  -13.5602    0.0000 C   0  0  0  0  0  0  0  0  0  0  0  0
   13.0786   -9.0775    0.0000 C   0  0  0  0  0  0  0  0  0  0  0  0
   10.1448  -13.3624    0.0000 N   0  0  0  0  0  0  0  0  0  0  0  0
   14.7446  -13.1588    0.0000 O   0  0  0  0  0  0  0  0  0  0  0  0
   13.4389  -12.4835    0.0000 N   0  0  0  0  0  0  0  0  0  0  0  0
   14.5933   -9.0370    0.0000 C   0  0  0  0  0  0  0  0  0  0  0  0
    8.5189  -10.0655    0.0000 C   0  0  0  0  0  0  0  0  0  0  0  0
   11.9737  -14.0374    0.0000 O   0  0  0  0  0  0  0  0  0  0  0  0
    8.4988  -10.8903    0.0000 C   0  0  0  0  0  0  0  0  0  0  0  0
   13.4880   -8.3624    0.0000 O   0  0  0  0  0  0  0  0  0  0  0  0
    9.1817  -12.1449    0.0000 C   0  0  0  0  0  0  0  0  0  0  0  0
   10.5615  -12.0870    0.0000 N   0  0  0  0  0  0  0  0  0  0  0  0
   10.9740  -13.3624    0.0000 C   0  0  0  0  0  0  0  0  0  0  0  0
   11.2751  -10.0293    0.0000 C   0  0  0  0  0  0  0  0  0  0  0  0
   14.3131   -8.3588    0.0000 C   0  0  0  0  0  0  0  0  0  0  0  0
   13.4291  -13.8193    0.0000 N   0  0  0  0  0  0  0  0  0  0  0  0
   12.7059  -10.8554    0.0000 C   0  0  0  0  0  0  0  0  0  0  0  0
   12.7030  -10.0303    0.0000 C   0  0  0  0  0  0  0  0  0  0  0  0
   11.2296  -12.5743    0.0000 C   0  0  0  0  0  0  0  0  0  0  0  0
   13.6990  -11.7002    0.0000 C   0  0  0  0  0  0  0  0  0  0  0  0
   14.5075  -11.5337    0.0000 C   0  0  0  0  0  0  0  0  0  0  0  0
   14.7677  -10.7504    0.0000 C   0  0  0  0  0  0  0  0  0  0  0  0
   15.5762  -10.5839    0.0000 C   0  0  0  0  0  0  0  0  0  0  0  0
  5 18  2  0
 23 21  1  0
 19 12  1  0
  7  2  1  0
  4  6  2  0
 31 32  2  0
  6 31  1  0
 15 22  2  0
 26  9  1  0
 17 27  1  0
  5 19  1  0
 27 33  2  0
 16 24  1  0
  1 23  1  0
  8  4  1  0
 13 20  1  0
 28  4  1  0
 16  3  2  0
  7 16  1  0
 33 26  1  0
 12 15  1  0
 25  1  1  0
 10 28  2  0
 14 12  2  0
 11  7  1  0
 30  5  1  0
 15 30  1  0
 32  7  1  0
 33 14  1  0
  2 13  1  0
  9 25  1  0
 26  8  1  0
 20 11  1  0
 32 10  1  0
 24 29  1  0
  9 17  2  0
 19 34  1  0
 34 35  1  0
 35 36  1  0
 36 37  1  0
M  END
>  <From>  (1) 
www.bindingDB.org

>  <BindingDB Reactant_set_id>  (1) 
51186034

>  <Ligand InChI>  (1) 
InChI=1S/C29H38N4O4/c1-4-6-10-25-30-19-23(18-24-26(34)31-28(36)32(24)17-7-5-2)33(25)20-21-11-13-22(14-12-21)29(27(35)37-3)15-8-9-16-29/h11-14,18-19H,4-10,15-17,20H2,1-3H3,(H,31,34,36)/b24-18+

>  <Ligand InChI Key>  (1) 
JCRZPGGPEZRMQN-HKOYGPOVSA-N

>  <BindingDB MonomerID>  (1) 
50487654

>  <BindingDB Ligand Name>  (1) 
CHEMBL2259779

>  <Target Name>  (1) 
Type-1 angiotensin II receptor

>  <Target Source Organism According to Curator or DataSource>  (1) 
Homo sapiens

>  <Ki (nM)>  (1) 


>  <IC50 (nM)>  (1) 
 2.5

>  <Kd (nM)>  (1) 


>  <EC50 (nM)>  (1) 


>  <kon (M-1-s-1)>  (1) 


>  <koff (s-1)>  (1) 


>  <pH>  (1) 


>  <Temp C>  (1) 


>  <Curation/DataSource>  (1) 
ChEMBL

>  <Article DOI>  (1) 
10.1007/s00044-009-9205-9

>  <BindingDB Entry DOI>  (1) 
10.7270/Q2CC13K2

>  <PMID>  (1) 


>  <PubChem AID>  (1) 


>  <Patent Number>  (1) 


>  <Authors>  (1) 
n/a

>  <Institution>  (1) 
n/a

>  <Link to Ligand in BindingDB>  (1) 
http://www.bindingdb.org/bind/chemsearch/marvin/MolStructure.jsp?monomerid=50487654

>  <Link to Ligand-Target Pair in BindingDB>  (1) 
http://www.bindingdb.org/jsp/dbsearch/PrimarySearch_ki.jsp?energyterm=kJ/mole&tag=r21&monomerid=50487654&enzyme=Type-1+angiotensin+II+receptor&column=ki&startPg=0&Increment=50&submit=Search

>  <Ligand HET ID in PDB>  (1) 


>  <PDB ID(s) for Ligand-Target Complex>  (1) 


>  <PubChem CID of Ligand>  (1) 
76333687

>  <PubChem SID of Ligand>  (1) 
433954919

>  <ChEBI ID of Ligand>  (1) 


>  <ChEMBL ID of Ligand>  (1) 


>  <DrugBank ID of Ligand>  (1) 


>  <IUPHAR_GRAC ID of Ligand>  (1) 


>  <KEGG ID of Ligand>  (1) 


>  <ZINC ID of Ligand>  (1) 


>  <Number of Protein Chains in Target (bigger than 1 implies a multichain complex)>  (1) 
1

>  <BindingDB Target Chain Sequence>  (1) 
MILNSSTEDGIKRIQDDCPKAGRHNYIFVMIPTLYSIIFVVGIFGNSLVVIVIYFYMKLKTVASVFLLNLALADLCFLLTLPLWAVYTAMEYRWPFGNYLCKIASASVSFNLYASVFLLTCLSIDRYLAIVHPMKSRLRRTMLVAKVTCIIIWLLAGLASLPAIIHRNVFFIENTNITVCAFHYESQNSTLPIGLGLTKNILGFLFPFLIILTSYTLIWKALKKAYEIQKNKPRNDDIFKIIMAIVLFFFFSWIPHQIFTFLDVLIQLGIIRDCRIADIVDTAMPITICIAYFNNCLNPLFYGFLGKKFKRYFLQLLKYIPPKAKSHSNLSTKMSTLSYRPSDNVSSSTKKPAPCFEVE

>  <PDB ID(s) of Target Chain>  (1) 
6DO1,6OS0,6OS1,6OS2

>  <UniProt (SwissProt) Recommended Name of Target Chain>  (1) 
Type-1 angiotensin II receptor

>  <UniProt (SwissProt) Entry Name of Target Chain>  (1) 
AGTR1_HUMAN

>  <UniProt (SwissProt) Primary ID of Target Chain>  (1) 
P30556

>  <UniProt (SwissProt) Secondary ID(s) of Target Chain>  (1) 
Q13725 Q8TBK4

>  <UniProt (SwissProt) Alternative ID(s) of Target Chain>  (1) 


>  <UniProt (TrEMBL) Submitted Name of Target Chain>  (1) 


>  <UniProt (TrEMBL) Entry Name of Target Chain>  (1) 


>  <UniProt (TrEMBL) Primary ID of Target Chain>  (1) 


>  <UniProt (TrEMBL) Secondary ID(s) of Target Chain>  (1) 


>  <UniProt (TrEMBL) Alternative ID(s) of Target Chain>  (1) 


$$$$
