
     RDKit          2D

 40 44  0  0  0  0  0  0  0  0999 V2000
   15.1313    0.2312    0.0000 C   0  0  0  0  0  0  0  0  0  0  0  0
   15.8335   -0.2024    0.0000 N   0  0  0  0  0  0  0  0  0  0  0  0
   11.5611   -0.1916    0.0000 N   0  0  0  0  0  0  0  0  0  0  0  0
   11.5599   -1.0190    0.0000 C   0  0  0  0  0  0  0  0  0  0  0  0
   12.2747   -1.4319    0.0000 N   0  0  0  0  0  0  0  0  0  0  0  0
   12.9912   -1.0185    0.0000 C   0  0  0  0  0  0  0  0  0  0  0  0
   12.9883   -0.1880    0.0000 C   0  0  0  0  0  0  0  0  0  0  0  0
   12.2729    0.2211    0.0000 C   0  0  0  0  0  0  0  0  0  0  0  0
   12.2745   -2.2569    0.0000 C   0  0  0  0  0  0  0  0  0  0  0  0
   12.9889   -2.6695    0.0000 C   0  0  0  0  0  0  0  0  0  0  0  0
   12.9845   -3.4927    0.0000 C   0  0  0  0  0  0  0  0  0  0  0  0
   13.6981   -3.9053    0.0000 C   0  0  0  0  0  0  0  0  0  0  0  0
   14.4136   -3.4930    0.0000 C   0  0  0  0  0  0  0  0  0  0  0  0
   14.4112   -2.6637    0.0000 C   0  0  0  0  0  0  0  0  0  0  0  0
   13.6970   -2.2548    0.0000 C   0  0  0  0  0  0  0  0  0  0  0  0
   15.1277   -3.9041    0.0000 C   0  0  0  0  0  0  0  0  0  0  0  0
   15.1274   -4.7299    0.0000 C   0  0  0  0  0  0  0  0  0  0  0  0
   15.8414   -5.1419    0.0000 C   0  0  0  0  0  0  0  0  0  0  0  0
   16.5564   -4.7286    0.0000 C   0  0  0  0  0  0  0  0  0  0  0  0
   16.5528   -3.8993    0.0000 C   0  0  0  0  0  0  0  0  0  0  0  0
   15.8382   -3.4914    0.0000 C   0  0  0  0  0  0  0  0  0  0  0  0
   14.4760   -5.2383    0.0000 C   0  0  0  0  0  0  0  0  0  0  0  0
   13.6832   -5.0101    0.0000 N   0  0  0  0  0  0  0  0  0  0  0  0
   13.2213   -5.6936    0.0000 N   0  0  0  0  0  0  0  0  0  0  0  0
   13.7286   -6.3442    0.0000 N   0  0  0  0  0  0  0  0  0  0  0  0
   14.5041   -6.0628    0.0000 N   0  0  0  0  0  0  0  0  0  0  0  0
   13.7063   -1.4299    0.0000 O   0  0  0  0  0  0  0  0  0  0  0  0
   10.8451   -1.4309    0.0000 C   0  0  0  0  0  0  0  0  0  0  0  0
   10.1310   -1.0179    0.0000 C   0  0  0  0  0  0  0  0  0  0  0  0
    9.4162   -1.4298    0.0000 C   0  0  0  0  0  0  0  0  0  0  0  0
    8.7020   -1.0167    0.0000 C   0  0  0  0  0  0  0  0  0  0  0  0
   12.2705    1.0461    0.0000 C   0  0  0  0  0  0  0  0  0  0  0  0
   13.7012    0.2272    0.0000 C   0  0  0  0  0  0  0  0  0  0  0  0
   14.4172   -0.1826    0.0000 C   0  0  0  0  0  0  0  0  0  0  0  0
   15.1270    1.0576    0.0000 O   0  0  0  0  0  0  0  0  0  0  0  0
   15.8050   -1.0325    0.0000 C   0  0  0  0  0  0  0  0  0  0  0  0
   16.5029   -1.4660    0.0000 C   0  0  0  0  0  0  0  0  0  0  0  0
   17.2319   -1.0785    0.0000 O   0  0  0  0  0  0  0  0  0  0  0  0
   17.2585   -0.2527    0.0000 C   0  0  0  0  0  0  0  0  0  0  0  0
   16.5562    0.1855    0.0000 C   0  0  0  0  0  0  0  0  0  0  0  0
  5  6  1  0
 20 21  1  0
 21 16  2  0
 13 16  1  0
 25 26  1  0
 10 11  2  0
  3  4  2  0
 23 24  1  0
 11 12  1  0
  6  7  1  0
 12 13  2  0
 22 23  2  0
 24 25  2  0
 26 22  1  0
 17 22  1  0
  6 27  2  0
 13 14  1  0
  4 28  1  0
  7  8  2  0
 28 29  1  0
 14 15  2  0
 29 30  1  0
 15 10  1  0
 30 31  1  0
  8  3  1  0
  8 32  1  0
  4  5  1  0
  7 33  1  0
 16 17  1  0
 33 34  1  0
 34  1  1  0
  5  9  1  0
  1 35  2  0
  2 36  1  0
 17 18  2  0
  1  2  1  0
 18 19  1  0
  9 10  1  0
 19 20  2  0
  2 40  1  0
 36 37  1  0
 37 38  1  0
 38 39  1  0
 39 40  1  0
M  END
>  <From>  (1) 
www.bindingDB.org

>  <BindingDB Reactant_set_id>  (1) 
50718741

>  <Ligand InChI>  (1) 
InChI=1S/C30H35N7O3/c1-3-4-9-27-31-21(2)24(14-15-28(38)36-16-18-40-19-17-36)30(39)37(27)20-22-10-12-23(13-11-22)25-7-5-6-8-26(25)29-32-34-35-33-29/h5-8,10-13H,3-4,9,14-20H2,1-2H3,(H,32,33,34,35)

>  <Ligand InChI Key>  (1) 
VIIUQRYTTGGTGH-UHFFFAOYSA-N

>  <BindingDB MonomerID>  (1) 
50364569

>  <BindingDB Ligand Name>  (1) 
CHEMBL1951139

>  <Target Name>  (1) 
Type-1 angiotensin II receptor

>  <Target Source Organism According to Curator or DataSource>  (1) 
Oryctolagus cuniculus

>  <Ki (nM)>  (1) 


>  <IC50 (nM)>  (1) 
 5.22

>  <Kd (nM)>  (1) 


>  <EC50 (nM)>  (1) 


>  <kon (M-1-s-1)>  (1) 


>  <koff (s-1)>  (1) 


>  <pH>  (1) 


>  <Temp C>  (1) 


>  <Curation/DataSource>  (1) 
ChEMBL

>  <Article DOI>  (1) 
10.1016/j.bmcl.2011.12.116

>  <BindingDB Entry DOI>  (1) 
10.7270/Q22R3S48

>  <PMID>  (1) 
22264484

>  <PubChem AID>  (1) 


>  <Patent Number>  (1) 


>  <Authors>  (1) 
Kim, TW; Yoo, BW; Lee, JK; Kim, JH; Lee, KT; Chi, YH; Lee, JY

>  <Institution>  (1) 
Kyung Hee University

>  <Link to Ligand in BindingDB>  (1) 
http://www.bindingdb.org/bind/chemsearch/marvin/MolStructure.jsp?monomerid=50364569

>  <Link to Ligand-Target Pair in BindingDB>  (1) 
http://www.bindingdb.org/jsp/dbsearch/PrimarySearch_ki.jsp?energyterm=kJ/mole&tag=r21&monomerid=50364569&enzyme=Type-1+angiotensin+II+receptor&column=ki&startPg=0&Increment=50&submit=Search

>  <Ligand HET ID in PDB>  (1) 


>  <PDB ID(s) for Ligand-Target Complex>  (1) 


>  <PubChem CID of Ligand>  (1) 
54393565

>  <PubChem SID of Ligand>  (1) 
136968631

>  <ChEBI ID of Ligand>  (1) 


>  <ChEMBL ID of Ligand>  (1) 
CHEMBL1951139

>  <DrugBank ID of Ligand>  (1) 


>  <IUPHAR_GRAC ID of Ligand>  (1) 


>  <KEGG ID of Ligand>  (1) 


>  <ZINC ID of Ligand>  (1) 
ZINC73293403

>  <Number of Protein Chains in Target (bigger than 1 implies a multichain complex)>  (1) 
1

>  <BindingDB Target Chain Sequence>  (1) 
MMLNSSTEDGIKRIQDDCPKAGRHNYIFVMIPTLYSIIFVVGIFGNSLAVIVIYFYMKLKTVASVFLLNLALADLCFLLTLPLWAVYTAMEYRWPFGNYLCKIASASVSFNLYASVFLLTCLSIDRYLAIVHPMKSRLRRTMLVAKVTCIIIWLLAGLASLPAIIHRNVFFIENTNITVCAFHYESQNSTLPIGLGLTKNILGFLFPFLIILTSYTLIWKALKKAYEIQKNKPRNDDIFKIIMAIVLFFFFSWVPHQIFTFLDVLIQLGVIHDCRIADIVDTAMPITICIAYFNNCLNPLFYGFLGKKFKKYFLQLLKYIPPKAKSHSNLSTKMSTLSYRPSDNVSSSSKKPVPCFEVE

>  <PDB ID(s) of Target Chain>  (1) 
6DO1,6OS0,6OS1,6OS2

>  <UniProt (SwissProt) Recommended Name of Target Chain>  (1) 
Type-1 angiotensin II receptor

>  <UniProt (SwissProt) Entry Name of Target Chain>  (1) 
AGTR1_RABIT

>  <UniProt (SwissProt) Primary ID of Target Chain>  (1) 
P34976

>  <UniProt (SwissProt) Secondary ID(s) of Target Chain>  (1) 


>  <UniProt (SwissProt) Alternative ID(s) of Target Chain>  (1) 


>  <UniProt (TrEMBL) Submitted Name of Target Chain>  (1) 


>  <UniProt (TrEMBL) Entry Name of Target Chain>  (1) 


>  <UniProt (TrEMBL) Primary ID of Target Chain>  (1) 


>  <UniProt (TrEMBL) Secondary ID(s) of Target Chain>  (1) 


>  <UniProt (TrEMBL) Alternative ID(s) of Target Chain>  (1) 


$$$$
