
     RDKit          2D

 46 51  0  0  0  0  0  0  0  0999 V2000
   -4.5082    1.6684    0.0000 C   0  0  0  0  0  0  0  0  0  0  0  0
   -4.5094    0.8410    0.0000 C   0  0  0  0  0  0  0  0  0  0  0  0
   -3.7946    0.4282    0.0000 C   0  0  0  0  0  0  0  0  0  0  0  0
   -3.0781    0.8415    0.0000 C   0  0  0  0  0  0  0  0  0  0  0  0
   -3.0810    1.6720    0.0000 C   0  0  0  0  0  0  0  0  0  0  0  0
   -3.7964    2.0812    0.0000 C   0  0  0  0  0  0  0  0  0  0  0  0
   -0.9382    2.0879    0.0000 N   0  0  0  0  0  0  0  0  0  0  0  0
   -0.2231    1.6765    0.0000 C   0  0  0  0  0  0  0  0  0  0  0  0
    0.4907    2.0901    0.0000 C   0  0  0  0  0  0  0  0  0  0  0  0
   -0.2218    0.8515    0.0000 O   0  0  0  0  0  0  0  0  0  0  0  0
    1.2045    1.6774    0.0000 C   0  0  0  0  0  0  0  0  0  0  0  0
    1.1969    3.3274    0.0000 C   0  0  0  0  0  0  0  0  0  0  0  0
    0.4865    2.9121    0.0000 C   0  0  0  0  0  0  0  0  0  0  0  0
    1.1927    4.1559    0.0000 C   0  0  0  0  0  0  0  0  0  0  0  0
    1.9170    2.9162    0.0000 C   0  0  0  0  0  0  0  0  0  0  0  0
    1.9193    2.0917    0.0000 C   0  0  0  0  0  0  0  0  0  0  0  0
    2.7034    1.8391    0.0000 N   0  0  0  0  0  0  0  0  0  0  0  0
    3.1870    2.5075    0.0000 C   0  0  0  0  0  0  0  0  0  0  0  0
    2.7005    3.1731    0.0000 N   0  0  0  0  0  0  0  0  0  0  0  0
    4.0120    2.5098    0.0000 C   0  0  0  0  0  0  0  0  0  0  0  0
    4.4225    3.2254    0.0000 C   0  0  0  0  0  0  0  0  0  0  0  0
    5.2475    3.2277    0.0000 C   0  0  0  0  0  0  0  0  0  0  0  0
    2.7053    1.0141    0.0000 C   0  0  0  0  0  0  0  0  0  0  0  0
    3.4207    0.6033    0.0000 C   0  0  0  0  0  0  0  0  0  0  0  0
    3.4178   -0.2211    0.0000 C   0  0  0  0  0  0  0  0  0  0  0  0
    4.1323   -0.6318    0.0000 C   0  0  0  0  0  0  0  0  0  0  0  0
    4.8468   -0.2177    0.0000 C   0  0  0  0  0  0  0  0  0  0  0  0
    4.8423    0.6116    0.0000 C   0  0  0  0  0  0  0  0  0  0  0  0
    4.1271    1.0187    0.0000 C   0  0  0  0  0  0  0  0  0  0  0  0
    5.5611   -0.6250    0.0000 C   0  0  0  0  0  0  0  0  0  0  0  0
    5.5627   -1.4511    0.0000 C   0  0  0  0  0  0  0  0  0  0  0  0
    6.2778   -1.8609    0.0000 C   0  0  0  0  0  0  0  0  0  0  0  0
    6.9918   -1.4458    0.0000 C   0  0  0  0  0  0  0  0  0  0  0  0
    6.9861   -0.6165    0.0000 C   0  0  0  0  0  0  0  0  0  0  0  0
    6.2704   -0.2104    0.0000 C   0  0  0  0  0  0  0  0  0  0  0  0
    6.2652    0.6146    0.0000 C   0  0  0  0  0  0  0  0  0  0  0  0
    6.9257    1.1038    0.0000 N   0  0  0  0  0  0  0  0  0  0  0  0
    6.6658    1.8868    0.0000 N   0  0  0  0  0  0  0  0  0  0  0  0
    5.8408    1.8815    0.0000 N   0  0  0  0  0  0  0  0  0  0  0  0
    5.5910    1.0953    0.0000 N   0  0  0  0  0  0  0  0  0  0  0  0
   -1.6520    1.6743    0.0000 C   0  0  0  0  0  0  0  0  0  0  0  0
   -2.3672    2.0856    0.0000 C   0  0  0  0  0  0  0  0  0  0  0  0
   -5.2228    2.0807    0.0000 O   0  0  0  0  0  0  0  0  0  0  0  0
   -5.2230    2.9057    0.0000 C   0  0  0  0  0  0  0  0  0  0  0  0
   -5.2242    0.4291    0.0000 O   0  0  0  0  0  0  0  0  0  0  0  0
   -5.9367    0.8422    0.0000 C   0  0  0  0  0  0  0  0  0  0  0  0
 11 16  2  0
 17 23  1  0
  5  6  1  0
 23 24  1  0
 15 12  2  0
 24 25  2  0
  6  1  2  0
 25 26  1  0
 12 13  1  0
 26 27  2  0
 13  9  2  0
 27 28  1  0
  1  2  1  0
 28 29  2  0
 29 24  1  0
 12 14  1  0
 15 16  1  0
 30 31  2  0
  3  4  1  0
 31 32  1  0
  7  8  1  0
 32 33  2  0
 33 34  1  0
  8  9  1  0
 34 35  2  0
 35 30  1  0
 27 30  1  0
  4  5  2  0
 35 36  1  0
 36 37  1  0
 16 17  1  0
 17 18  1  0
 18 19  2  0
 19 15  1  0
 37 38  1  0
 38 39  2  0
 39 40  1  0
 40 36  2  0
  8 10  2  0
  7 41  1  0
 18 20  1  0
 41 42  1  0
 42  5  1  0
  2  3  2  0
  1 43  1  0
 20 21  1  0
 43 44  1  0
  9 11  1  0
  2 45  1  0
 21 22  1  0
 45 46  1  0
M  END
>  <From>  (1) 
www.bindingDB.org

>  <BindingDB Reactant_set_id>  (1) 
50947182

>  <Ligand InChI>  (1) 
InChI=1S/C36H37N7O3/c1-5-8-33-38-34-23(2)19-27(36(44)37-18-17-24-13-16-31(45-3)32(20-24)46-4)21-30(34)43(33)22-25-11-14-26(15-12-25)28-9-6-7-10-29(28)35-39-41-42-40-35/h6-7,9-16,19-21H,5,8,17-18,22H2,1-4H3,(H,37,44)(H,39,40,41,42)

>  <Ligand InChI Key>  (1) 
IEUPDMDPHSCKBD-UHFFFAOYSA-N

>  <BindingDB MonomerID>  (1) 
50388741

>  <BindingDB Ligand Name>  (1) 
CHEMBL2058864

>  <Target Name>  (1) 
Type-1 angiotensin II receptor

>  <Target Source Organism According to Curator or DataSource>  (1) 
Homo sapiens

>  <Ki (nM)>  (1) 


>  <IC50 (nM)>  (1) 
 3.7

>  <Kd (nM)>  (1) 


>  <EC50 (nM)>  (1) 


>  <kon (M-1-s-1)>  (1) 


>  <koff (s-1)>  (1) 


>  <pH>  (1) 


>  <Temp C>  (1) 


>  <Curation/DataSource>  (1) 
ChEMBL

>  <Article DOI>  (1) 
10.1016/j.bmc.2012.05.056

>  <BindingDB Entry DOI>  (1) 
10.7270/Q2GT5P7J

>  <PMID>  (1) 
22727371

>  <PubChem AID>  (1) 


>  <Patent Number>  (1) 


>  <Authors>  (1) 
Zhang, J; Wang, JL; Zhou, ZM; Li, ZH; Xue, WZ; Xu, D; Hao, LP; Han, XF; Fei, F; Liu, T; Liang, AH

>  <Institution>  (1) 
School of Chemical Engineering & the Environment

>  <Link to Ligand in BindingDB>  (1) 
http://www.bindingdb.org/bind/chemsearch/marvin/MolStructure.jsp?monomerid=50388741

>  <Link to Ligand-Target Pair in BindingDB>  (1) 
http://www.bindingdb.org/jsp/dbsearch/PrimarySearch_ki.jsp?energyterm=kJ/mole&tag=r21&monomerid=50388741&enzyme=Type-1+angiotensin+II+receptor&column=ki&startPg=0&Increment=50&submit=Search

>  <Ligand HET ID in PDB>  (1) 


>  <PDB ID(s) for Ligand-Target Complex>  (1) 


>  <PubChem CID of Ligand>  (1) 
46910493

>  <PubChem SID of Ligand>  (1) 
160867824

>  <ChEBI ID of Ligand>  (1) 


>  <ChEMBL ID of Ligand>  (1) 
CHEMBL2058864

>  <DrugBank ID of Ligand>  (1) 


>  <IUPHAR_GRAC ID of Ligand>  (1) 


>  <KEGG ID of Ligand>  (1) 


>  <ZINC ID of Ligand>  (1) 
ZINC72316990

>  <Number of Protein Chains in Target (bigger than 1 implies a multichain complex)>  (1) 
1

>  <BindingDB Target Chain Sequence>  (1) 
MILNSSTEDGIKRIQDDCPKAGRHNYIFVMIPTLYSIIFVVGIFGNSLVVIVIYFYMKLKTVASVFLLNLALADLCFLLTLPLWAVYTAMEYRWPFGNYLCKIASASVSFNLYASVFLLTCLSIDRYLAIVHPMKSRLRRTMLVAKVTCIIIWLLAGLASLPAIIHRNVFFIENTNITVCAFHYESQNSTLPIGLGLTKNILGFLFPFLIILTSYTLIWKALKKAYEIQKNKPRNDDIFKIIMAIVLFFFFSWIPHQIFTFLDVLIQLGIIRDCRIADIVDTAMPITICIAYFNNCLNPLFYGFLGKKFKRYFLQLLKYIPPKAKSHSNLSTKMSTLSYRPSDNVSSSTKKPAPCFEVE

>  <PDB ID(s) of Target Chain>  (1) 
6DO1,6OS0,6OS1,6OS2

>  <UniProt (SwissProt) Recommended Name of Target Chain>  (1) 
Type-1 angiotensin II receptor

>  <UniProt (SwissProt) Entry Name of Target Chain>  (1) 
AGTR1_HUMAN

>  <UniProt (SwissProt) Primary ID of Target Chain>  (1) 
P30556

>  <UniProt (SwissProt) Secondary ID(s) of Target Chain>  (1) 
Q13725 Q8TBK4

>  <UniProt (SwissProt) Alternative ID(s) of Target Chain>  (1) 


>  <UniProt (TrEMBL) Submitted Name of Target Chain>  (1) 


>  <UniProt (TrEMBL) Entry Name of Target Chain>  (1) 


>  <UniProt (TrEMBL) Primary ID of Target Chain>  (1) 


>  <UniProt (TrEMBL) Secondary ID(s) of Target Chain>  (1) 


>  <UniProt (TrEMBL) Alternative ID(s) of Target Chain>  (1) 


$$$$
