
     RDKit          2D

 35 38  0  0  0  0  0  0  0  0999 V2000
    6.3277   -8.5250    0.0000 N   0  0  0  0  0  0  0  0  0  0  0  0
    6.3266   -9.3523    0.0000 C   0  0  0  0  0  0  0  0  0  0  0  0
    7.0414   -9.7652    0.0000 N   0  0  0  0  0  0  0  0  0  0  0  0
    7.7578   -9.3519    0.0000 C   0  0  0  0  0  0  0  0  0  0  0  0
    7.7550   -8.5213    0.0000 C   0  0  0  0  0  0  0  0  0  0  0  0
    7.0396   -8.1122    0.0000 C   0  0  0  0  0  0  0  0  0  0  0  0
    7.0412  -10.5902    0.0000 C   0  0  0  0  0  0  0  0  0  0  0  0
    7.7556  -11.0029    0.0000 C   0  0  0  0  0  0  0  0  0  0  0  0
    7.7512  -11.8261    0.0000 C   0  0  0  0  0  0  0  0  0  0  0  0
    8.4647  -12.2387    0.0000 C   0  0  0  0  0  0  0  0  0  0  0  0
    9.1803  -11.8263    0.0000 C   0  0  0  0  0  0  0  0  0  0  0  0
    9.1778  -10.9970    0.0000 C   0  0  0  0  0  0  0  0  0  0  0  0
    8.4637  -10.5882    0.0000 C   0  0  0  0  0  0  0  0  0  0  0  0
    9.8944  -12.2375    0.0000 C   0  0  0  0  0  0  0  0  0  0  0  0
    9.8941  -13.0633    0.0000 C   0  0  0  0  0  0  0  0  0  0  0  0
   10.6080  -13.4752    0.0000 C   0  0  0  0  0  0  0  0  0  0  0  0
   11.3230  -13.0619    0.0000 C   0  0  0  0  0  0  0  0  0  0  0  0
   11.3195  -12.2326    0.0000 C   0  0  0  0  0  0  0  0  0  0  0  0
   10.6048  -11.8247    0.0000 C   0  0  0  0  0  0  0  0  0  0  0  0
    9.2427  -13.5716    0.0000 C   0  0  0  0  0  0  0  0  0  0  0  0
    8.4499  -13.3434    0.0000 N   0  0  0  0  0  0  0  0  0  0  0  0
    7.9879  -14.0269    0.0000 N   0  0  0  0  0  0  0  0  0  0  0  0
    8.4952  -14.6775    0.0000 N   0  0  0  0  0  0  0  0  0  0  0  0
    9.2708  -14.3961    0.0000 N   0  0  0  0  0  0  0  0  0  0  0  0
    8.4730   -9.7632    0.0000 O   0  0  0  0  0  0  0  0  0  0  0  0
    5.6118   -9.7643    0.0000 C   0  0  0  0  0  0  0  0  0  0  0  0
    4.8976   -9.3512    0.0000 C   0  0  0  0  0  0  0  0  0  0  0  0
    7.0371   -7.2872    0.0000 C   0  0  0  0  0  0  0  0  0  0  0  0
    8.4679   -8.1061    0.0000 C   0  0  0  0  0  0  0  0  0  0  0  0
    9.1839   -8.5159    0.0000 C   0  0  0  0  0  0  0  0  0  0  0  0
    9.8968   -8.1008    0.0000 C   0  0  0  0  0  0  0  0  0  0  0  0
   10.6128   -8.5106    0.0000 O   0  0  0  0  0  0  0  0  0  0  0  0
    9.8937   -7.2758    0.0000 O   0  0  0  0  0  0  0  0  0  0  0  0
   11.3258   -8.0954    0.0000 C   0  0  0  0  0  0  0  0  0  0  0  0
   12.0418   -8.5052    0.0000 C   0  0  0  0  0  0  0  0  0  0  0  0
 17 18  2  0
  8  9  2  0
 18 19  1  0
 19 14  2  0
 11 14  1  0
 23 24  1  0
  4  5  1  0
  9 10  1  0
 21 22  1  0
  2  3  1  0
 10 11  2  0
  5  6  2  0
 20 21  2  0
 22 23  2  0
 24 20  1  0
 15 20  1  0
 11 12  1  0
  4 25  2  0
  6  1  1  0
  2 26  1  0
 12 13  2  0
 26 27  1  0
 13  8  1  0
  6 28  1  0
  1  2  2  0
  5 29  1  0
  3  7  1  0
 29 30  1  0
 14 15  1  0
 30 31  1  0
  3  4  1  0
 31 32  1  0
 15 16  2  0
 31 33  2  0
  7  8  1  0
 32 34  1  0
 16 17  1  0
 34 35  1  0
M  END
>  <From>  (1) 
www.bindingDB.org

>  <BindingDB Reactant_set_id>  (1) 
50718765

>  <Ligand InChI>  (1) 
InChI=1S/C26H28N6O3/c1-4-23-27-17(3)20(14-15-24(33)35-5-2)26(34)32(23)16-18-10-12-19(13-11-18)21-8-6-7-9-22(21)25-28-30-31-29-25/h6-13H,4-5,14-16H2,1-3H3,(H,28,29,30,31)

>  <Ligand InChI Key>  (1) 
MLTZGAIPDBWYAS-UHFFFAOYSA-N

>  <BindingDB MonomerID>  (1) 
50364592

>  <BindingDB Ligand Name>  (1) 
CHEMBL1951122

>  <Target Name>  (1) 
Type-1 angiotensin II receptor

>  <Target Source Organism According to Curator or DataSource>  (1) 
Oryctolagus cuniculus

>  <Ki (nM)>  (1) 


>  <IC50 (nM)>  (1) 
 30.74

>  <Kd (nM)>  (1) 


>  <EC50 (nM)>  (1) 


>  <kon (M-1-s-1)>  (1) 


>  <koff (s-1)>  (1) 


>  <pH>  (1) 


>  <Temp C>  (1) 


>  <Curation/DataSource>  (1) 
ChEMBL

>  <Article DOI>  (1) 
10.1016/j.bmcl.2011.12.116

>  <BindingDB Entry DOI>  (1) 
10.7270/Q22R3S48

>  <PMID>  (1) 
22264484

>  <PubChem AID>  (1) 


>  <Patent Number>  (1) 


>  <Authors>  (1) 
Kim, TW; Yoo, BW; Lee, JK; Kim, JH; Lee, KT; Chi, YH; Lee, JY

>  <Institution>  (1) 
Kyung Hee University

>  <Link to Ligand in BindingDB>  (1) 
http://www.bindingdb.org/bind/chemsearch/marvin/MolStructure.jsp?monomerid=50364592

>  <Link to Ligand-Target Pair in BindingDB>  (1) 
http://www.bindingdb.org/jsp/dbsearch/PrimarySearch_ki.jsp?energyterm=kJ/mole&tag=r21&monomerid=50364592&enzyme=Type-1+angiotensin+II+receptor&column=ki&startPg=0&Increment=50&submit=Search

>  <Ligand HET ID in PDB>  (1) 


>  <PDB ID(s) for Ligand-Target Complex>  (1) 


>  <PubChem CID of Ligand>  (1) 
57403666

>  <PubChem SID of Ligand>  (1) 
136968654

>  <ChEBI ID of Ligand>  (1) 


>  <ChEMBL ID of Ligand>  (1) 
CHEMBL1951122

>  <DrugBank ID of Ligand>  (1) 


>  <IUPHAR_GRAC ID of Ligand>  (1) 


>  <KEGG ID of Ligand>  (1) 


>  <ZINC ID of Ligand>  (1) 
ZINC73278028

>  <Number of Protein Chains in Target (bigger than 1 implies a multichain complex)>  (1) 
1

>  <BindingDB Target Chain Sequence>  (1) 
MMLNSSTEDGIKRIQDDCPKAGRHNYIFVMIPTLYSIIFVVGIFGNSLAVIVIYFYMKLKTVASVFLLNLALADLCFLLTLPLWAVYTAMEYRWPFGNYLCKIASASVSFNLYASVFLLTCLSIDRYLAIVHPMKSRLRRTMLVAKVTCIIIWLLAGLASLPAIIHRNVFFIENTNITVCAFHYESQNSTLPIGLGLTKNILGFLFPFLIILTSYTLIWKALKKAYEIQKNKPRNDDIFKIIMAIVLFFFFSWVPHQIFTFLDVLIQLGVIHDCRIADIVDTAMPITICIAYFNNCLNPLFYGFLGKKFKKYFLQLLKYIPPKAKSHSNLSTKMSTLSYRPSDNVSSSSKKPVPCFEVE

>  <PDB ID(s) of Target Chain>  (1) 
6DO1,6OS0,6OS1,6OS2

>  <UniProt (SwissProt) Recommended Name of Target Chain>  (1) 
Type-1 angiotensin II receptor

>  <UniProt (SwissProt) Entry Name of Target Chain>  (1) 
AGTR1_RABIT

>  <UniProt (SwissProt) Primary ID of Target Chain>  (1) 
P34976

>  <UniProt (SwissProt) Secondary ID(s) of Target Chain>  (1) 


>  <UniProt (SwissProt) Alternative ID(s) of Target Chain>  (1) 


>  <UniProt (TrEMBL) Submitted Name of Target Chain>  (1) 


>  <UniProt (TrEMBL) Entry Name of Target Chain>  (1) 


>  <UniProt (TrEMBL) Primary ID of Target Chain>  (1) 


>  <UniProt (TrEMBL) Secondary ID(s) of Target Chain>  (1) 


>  <UniProt (TrEMBL) Alternative ID(s) of Target Chain>  (1) 


$$$$
