
     RDKit          2D

 36 41  0  0  0  0  0  0  0  0999 V2000
   -0.4931  -13.5634    0.0000 N   0  0  0  0  0  0  0  0  0  0  0  0
    0.3321  -13.5634    0.0000 N   0  0  0  0  0  0  0  0  0  0  0  0
    0.5876  -12.7810    0.0000 C   0  0  0  0  0  0  0  0  0  0  0  0
   -0.0805  -12.2916    0.0000 N   0  0  0  0  0  0  0  0  0  0  0  0
   -0.7485  -12.7810    0.0000 N   0  0  0  0  0  0  0  0  0  0  0  0
   -0.7818   -8.1284    0.0000 N   0  0  0  0  0  0  0  0  0  0  0  0
   -0.0685   -7.7148    0.0000 C   0  0  0  0  0  0  0  0  0  0  0  0
   -0.0719   -6.8832    0.0000 C   0  0  0  0  0  0  0  0  0  0  0  0
   -0.7839   -6.4746    0.0000 C   0  0  0  0  0  0  0  0  0  0  0  0
   -1.4980   -7.7154    0.0000 C   0  0  0  0  0  0  0  0  0  0  0  0
   -1.5011   -6.8905    0.0000 C   0  0  0  0  0  0  0  0  0  0  0  0
   -2.2866   -6.6386    0.0000 N   0  0  0  0  0  0  0  0  0  0  0  0
   -2.7689   -7.3078    0.0000 C   0  0  0  0  0  0  0  0  0  0  0  0
   -2.2815   -7.9732    0.0000 N   0  0  0  0  0  0  0  0  0  0  0  0
   -3.5941   -7.3110    0.0000 C   0  0  0  0  0  0  0  0  0  0  0  0
   -4.0094   -6.5979    0.0000 C   0  0  0  0  0  0  0  0  0  0  0  0
   -0.7857   -5.6494    0.0000 C   0  0  0  0  0  0  0  0  0  0  0  0
    0.6472   -8.1253    0.0000 C   0  0  0  0  0  0  0  0  0  0  0  0
   -2.2910   -8.7950    0.0000 C   0  0  0  0  0  0  0  0  0  0  0  0
   -1.5812   -9.2158    0.0000 C   0  0  0  0  0  0  0  0  0  0  0  0
   -1.5945  -10.0390    0.0000 C   0  0  0  0  0  0  0  0  0  0  0  0
   -0.8856  -10.4598    0.0000 C   0  0  0  0  0  0  0  0  0  0  0  0
   -0.8679   -8.8091    0.0000 C   0  0  0  0  0  0  0  0  0  0  0  0
   -0.1583   -9.2261    0.0000 C   0  0  0  0  0  0  0  0  0  0  0  0
   -0.1622  -10.0510    0.0000 C   0  0  0  0  0  0  0  0  0  0  0  0
    0.6212  -10.3097    0.0000 N   0  0  0  0  0  0  0  0  0  0  0  0
    1.1093   -9.6445    0.0000 C   0  0  0  0  0  0  0  0  0  0  0  0
    0.6275   -8.9749    0.0000 C   0  0  0  0  0  0  0  0  0  0  0  0
    0.6116  -11.1345    0.0000 C   0  0  0  0  0  0  0  0  0  0  0  0
    1.3212  -11.5555    0.0000 C   0  0  0  0  0  0  0  0  0  0  0  0
    1.3080  -12.3786    0.0000 C   0  0  0  0  0  0  0  0  0  0  0  0
    2.0168  -12.7994    0.0000 C   0  0  0  0  0  0  0  0  0  0  0  0
    2.7372  -12.3953    0.0000 C   0  0  0  0  0  0  0  0  0  0  0  0
    2.7443  -11.5659    0.0000 C   0  0  0  0  0  0  0  0  0  0  0  0
    2.0347  -11.1487    0.0000 C   0  0  0  0  0  0  0  0  0  0  0  0
    2.0403  -10.3236    0.0000 Cl  0  0  0  0  0  0  0  0  0  0  0  0
  3  4  2  0
  7 18  1  0
  8  9  1  0
 14 19  1  0
  9 11  2  0
 19 20  1  0
 10 11  1  0
 20 21  2  0
  4  5  1  0
 21 22  1  0
 22 25  2  0
  5  1  2  0
 24 23  2  0
 23 20  1  0
 24 25  1  0
  1  2  1  0
 10  6  2  0
 11 12  1  0
 12 13  2  0
 25 26  1  0
 26 27  1  0
 27 28  2  0
 28 24  1  0
 13 14  1  0
 26 29  1  0
 14 10  1  0
 29 30  1  0
  6  7  1  0
 30 31  1  0
 13 15  1  0
 31 32  2  0
  2  3  1  0
 32 33  1  0
 15 16  1  0
 33 34  2  0
  7  8  2  0
 34 35  1  0
 35 30  2  0
  9 17  1  0
 35 36  1  0
 31  3  1  0
M  END
>  <From>  (1) 
www.bindingDB.org

>  <BindingDB Reactant_set_id>  (1) 
50062165

>  <Ligand InChI>  (1) 
InChI=1S/C27H25ClN8/c1-4-24-30-25-16(2)12-17(3)29-27(25)36(24)14-18-8-9-23-19(13-18)10-11-35(23)15-21-20(6-5-7-22(21)28)26-31-33-34-32-26/h5-13H,4,14-15H2,1-3H3,(H,31,32,33,34)

>  <Ligand InChI Key>  (1) 
OVQDHXZVUKADSJ-UHFFFAOYSA-N

>  <BindingDB MonomerID>  (1) 
50043438

>  <BindingDB Ligand Name>  (1) 
4-{1-[2-Chloro-6-(1H-tetrazol-5-yl)-benzyl]-1H-indol-5-ylmethyl}-2-ethyl-5,7-dimethyl-3H-imidazo[4,5-b]pyridine::CHEMBL135775

>  <Target Name>  (1) 
Type-1 angiotensin II receptor

>  <Target Source Organism According to Curator or DataSource>  (1) 
Oryctolagus cuniculus

>  <Ki (nM)>  (1) 


>  <IC50 (nM)>  (1) 
 1

>  <Kd (nM)>  (1) 


>  <EC50 (nM)>  (1) 


>  <kon (M-1-s-1)>  (1) 


>  <koff (s-1)>  (1) 


>  <pH>  (1) 


>  <Temp C>  (1) 


>  <Curation/DataSource>  (1) 
ChEMBL

>  <Article DOI>  (1) 
10.1021/jm00078a013

>  <BindingDB Entry DOI>  (1) 
10.7270/Q26M35X0

>  <PMID>  (1) 
8277505

>  <PubChem AID>  (1) 


>  <Patent Number>  (1) 


>  <Authors>  (1) 
Dhanoa, DS; Bagley, SW; Chang, RS; Lotti, VJ; Chen, TB; Kivlighn, SD; Zingaro, GJ; Siegl, PK; Patchett, AA; Greenlee, WJ

>  <Institution>  (1) 
Merck Research Laboratories

>  <Link to Ligand in BindingDB>  (1) 
http://www.bindingdb.org/bind/chemsearch/marvin/MolStructure.jsp?monomerid=50043438

>  <Link to Ligand-Target Pair in BindingDB>  (1) 
http://www.bindingdb.org/jsp/dbsearch/PrimarySearch_ki.jsp?energyterm=kJ/mole&tag=r21&monomerid=50043438&enzyme=Type-1+angiotensin+II+receptor&column=ki&startPg=0&Increment=50&submit=Search

>  <Ligand HET ID in PDB>  (1) 


>  <PDB ID(s) for Ligand-Target Complex>  (1) 


>  <PubChem CID of Ligand>  (1) 
192345

>  <PubChem SID of Ligand>  (1) 
103974866

>  <ChEBI ID of Ligand>  (1) 


>  <ChEMBL ID of Ligand>  (1) 
CHEMBL135775

>  <DrugBank ID of Ligand>  (1) 


>  <IUPHAR_GRAC ID of Ligand>  (1) 


>  <KEGG ID of Ligand>  (1) 


>  <ZINC ID of Ligand>  (1) 
ZINC03783777

>  <Number of Protein Chains in Target (bigger than 1 implies a multichain complex)>  (1) 
1

>  <BindingDB Target Chain Sequence>  (1) 
MMLNSSTEDGIKRIQDDCPKAGRHNYIFVMIPTLYSIIFVVGIFGNSLAVIVIYFYMKLKTVASVFLLNLALADLCFLLTLPLWAVYTAMEYRWPFGNYLCKIASASVSFNLYASVFLLTCLSIDRYLAIVHPMKSRLRRTMLVAKVTCIIIWLLAGLASLPAIIHRNVFFIENTNITVCAFHYESQNSTLPIGLGLTKNILGFLFPFLIILTSYTLIWKALKKAYEIQKNKPRNDDIFKIIMAIVLFFFFSWVPHQIFTFLDVLIQLGVIHDCRIADIVDTAMPITICIAYFNNCLNPLFYGFLGKKFKKYFLQLLKYIPPKAKSHSNLSTKMSTLSYRPSDNVSSSSKKPVPCFEVE

>  <PDB ID(s) of Target Chain>  (1) 
6DO1,6OS0,6OS1,6OS2

>  <UniProt (SwissProt) Recommended Name of Target Chain>  (1) 
Type-1 angiotensin II receptor

>  <UniProt (SwissProt) Entry Name of Target Chain>  (1) 
AGTR1_RABIT

>  <UniProt (SwissProt) Primary ID of Target Chain>  (1) 
P34976

>  <UniProt (SwissProt) Secondary ID(s) of Target Chain>  (1) 


>  <UniProt (SwissProt) Alternative ID(s) of Target Chain>  (1) 


>  <UniProt (TrEMBL) Submitted Name of Target Chain>  (1) 


>  <UniProt (TrEMBL) Entry Name of Target Chain>  (1) 


>  <UniProt (TrEMBL) Primary ID of Target Chain>  (1) 


>  <UniProt (TrEMBL) Secondary ID(s) of Target Chain>  (1) 


>  <UniProt (TrEMBL) Alternative ID(s) of Target Chain>  (1) 


$$$$
