
     RDKit          2D

 39 44  0  0  0  0  0  0  0  0999 V2000
    5.1342    0.3453    0.0000 N   0  0  0  0  0  0  0  0  0  0  0  0
    5.1425    1.6684    0.0000 N   0  0  0  0  0  0  0  0  0  0  0  0
    4.6557    1.0068    0.0000 C   0  0  0  0  0  0  0  0  0  0  0  0
    8.0507   -0.6532    0.0000 N   0  0  0  0  0  0  0  0  0  0  0  0
    5.9205    0.5949    0.0000 C   0  0  0  0  0  0  0  0  0  0  0  0
    5.8581   -3.8985    0.0000 C   0  0  0  0  0  0  0  0  0  0  0  0
    4.5350   -3.6988    0.0000 N   0  0  0  0  0  0  0  0  0  0  0  0
    5.2715   -3.3243    0.0000 N   0  0  0  0  0  0  0  0  0  0  0  0
    4.6806   -4.5226    0.0000 N   0  0  0  0  0  0  0  0  0  0  0  0
    8.0632    0.1705    0.0000 C   0  0  0  0  0  0  0  0  0  0  0  0
    5.9205    1.4187    0.0000 C   0  0  0  0  0  0  0  0  0  0  0  0
    5.4961   -4.6349    0.0000 N   0  0  0  0  0  0  0  0  0  0  0  0
    8.7539   -1.0651    0.0000 N   0  0  0  0  0  0  0  0  0  0  0  0
    6.6694   -3.7612    0.0000 C   0  0  0  0  0  0  0  0  0  0  0  0
    6.6320    0.1705    0.0000 C   0  0  0  0  0  0  0  0  0  0  0  0
    7.3517    0.5824    0.0000 C   0  0  0  0  0  0  0  0  0  0  0  0
    6.9690   -2.9873    0.0000 C   0  0  0  0  0  0  0  0  0  0  0  0
    9.4778   -0.6615    0.0000 C   0  0  0  0  0  0  0  0  0  0  0  0
    8.7788    0.5824    0.0000 C   0  0  0  0  0  0  0  0  0  0  0  0
    4.8803   -0.4411    0.0000 C   0  0  0  0  0  0  0  0  0  0  0  0
    6.4572   -2.3383    0.0000 C   0  0  0  0  0  0  0  0  0  0  0  0
    9.4861    0.1623    0.0000 C   0  0  0  0  0  0  0  0  0  0  0  0
    6.6320    1.8306    0.0000 C   0  0  0  0  0  0  0  0  0  0  0  0
    7.3517    1.4187    0.0000 C   0  0  0  0  0  0  0  0  0  0  0  0
   10.1768   -1.0901    0.0000 O   0  0  0  0  0  0  0  0  0  0  0  0
    6.7568   -1.5769    0.0000 C   0  0  0  0  0  0  0  0  0  0  0  0
    5.6417   -2.4756    0.0000 C   0  0  0  0  0  0  0  0  0  0  0  0
    5.4212   -1.0651    0.0000 C   0  0  0  0  0  0  0  0  0  0  0  0
    3.8319    1.0068    0.0000 C   0  0  0  0  0  0  0  0  0  0  0  0
    5.1217   -1.8265    0.0000 C   0  0  0  0  0  0  0  0  0  0  0  0
    6.2450   -0.9403    0.0000 C   0  0  0  0  0  0  0  0  0  0  0  0
    7.1895   -4.3977    0.0000 C   0  0  0  0  0  0  0  0  0  0  0  0
    7.7886   -2.8625    0.0000 C   0  0  0  0  0  0  0  0  0  0  0  0
    8.7788    1.4062    0.0000 C   0  0  0  0  0  0  0  0  0  0  0  0
    3.4200    1.7225    0.0000 C   0  0  0  0  0  0  0  0  0  0  0  0
    2.5962    1.7225    0.0000 C   0  0  0  0  0  0  0  0  0  0  0  0
    8.0050   -4.2729    0.0000 C   0  0  0  0  0  0  0  0  0  0  0  0
    8.3003   -3.5115    0.0000 C   0  0  0  0  0  0  0  0  0  0  0  0
    2.1843    2.4422    0.0000 C   0  0  0  0  0  0  0  0  0  0  0  0
  2  3  2  0
  3  1  1  0
  4 10  2  0
  5  1  1  0
  6 14  1  0
  7  8  1  0
  8  6  1  0
  9 12  1  0
 10 16  1  0
 11  5  2  0
 12  6  2  0
 13  4  1  0
 14 17  1  0
 15  5  1  0
 16 15  2  0
 17 21  1  0
 18 22  1  0
 19 10  1  0
 20  1  1  0
 21 26  2  0
 22 19  1  0
 23 11  1  0
 24 16  1  0
 25 18  2  0
 26 31  1  0
 27 30  2  0
 28 20  1  0
 29  3  1  0
 30 28  1  0
 31 28  2  0
 32 14  2  0
 33 17  2  0
 34 19  1  0
 35 29  1  0
 36 35  1  0
 37 38  2  0
 38 33  1  0
 39 36  1  0
 11  2  1  0
 27 21  1  0
 24 23  2  0
 18 13  1  0
 37 32  1  0
  9  7  2  0
M  END
>  <From>  (1) 
www.bindingDB.org

>  <BindingDB Reactant_set_id>  (1) 
50724005

>  <Ligand InChI>  (1) 
InChI=1S/C30H30N8O/c1-3-4-9-27-31-25-15-14-22(29-19(2)16-28(39)32-33-29)17-26(25)38(27)18-20-10-12-21(13-11-20)23-7-5-6-8-24(23)30-34-36-37-35-30/h5-8,10-15,17,19H,3-4,9,16,18H2,1-2H3,(H,32,39)(H,34,35,36,37)

>  <Ligand InChI Key>  (1) 
UIOODGFNLCGWIH-UHFFFAOYSA-N

>  <BindingDB MonomerID>  (1) 
50282626

>  <BindingDB Ligand Name>  (1) 
6-{2-Butyl-3-[2'-(1H-tetrazol-5-yl)-biphenyl-4-ylmethyl]-3H-benzoimidazol-5-yl}-5-methyl-4,5-dihydro-2H-pyridazin-3-one::CHEMBL25989

>  <Target Name>  (1) 
Type-1 angiotensin II receptor

>  <Target Source Organism According to Curator or DataSource>  (1) 
Bos taurus

>  <Ki (nM)>  (1) 


>  <IC50 (nM)>  (1) 
 22

>  <Kd (nM)>  (1) 


>  <EC50 (nM)>  (1) 


>  <kon (M-1-s-1)>  (1) 


>  <koff (s-1)>  (1) 


>  <pH>  (1) 


>  <Temp C>  (1) 


>  <Curation/DataSource>  (1) 
ChEMBL

>  <Article DOI>  (1) 
10.1016/S0960-894X(01)80348-6

>  <BindingDB Entry DOI>  (1) 
10.7270/Q2G44QRD

>  <PMID>  (1) 


>  <PubChem AID>  (1) 


>  <Patent Number>  (1) 


>  <Authors>  (1) 
Dorsch, D; Mederski, WW; Beier, N; Lues, I; Minck, K; Schelling, P

>  <Institution>  (1) 
TBA

>  <Link to Ligand in BindingDB>  (1) 
http://www.bindingdb.org/bind/chemsearch/marvin/MolStructure.jsp?monomerid=50282626

>  <Link to Ligand-Target Pair in BindingDB>  (1) 
http://www.bindingdb.org/jsp/dbsearch/PrimarySearch_ki.jsp?energyterm=kJ/mole&tag=r21&monomerid=50282626&enzyme=Type-1+angiotensin+II+receptor&column=ki&startPg=0&Increment=50&submit=Search

>  <Ligand HET ID in PDB>  (1) 


>  <PDB ID(s) for Ligand-Target Complex>  (1) 


>  <PubChem CID of Ligand>  (1) 
44459662

>  <PubChem SID of Ligand>  (1) 
104124300

>  <ChEBI ID of Ligand>  (1) 


>  <ChEMBL ID of Ligand>  (1) 
CHEMBL25989

>  <DrugBank ID of Ligand>  (1) 


>  <IUPHAR_GRAC ID of Ligand>  (1) 


>  <KEGG ID of Ligand>  (1) 


>  <ZINC ID of Ligand>  (1) 
ZINC28755789

>  <Number of Protein Chains in Target (bigger than 1 implies a multichain complex)>  (1) 
1

>  <BindingDB Target Chain Sequence>  (1) 
MILNSSTEDGIKRIQDDCPKAGRHNYIFIMIPTLYSIIFVVGIFGNSLVVIVIYFYMKLKTVASVFLLNLALADLCFLLTLPLWAVYTAMEYRWPFGNYLCKIASASVSFNLYASVFLLTCLSIDRYLAIVHPMKSRLRRTMLVAKVTCIIIWLLAGLASLPTIIHRNVFFIENTNITVCAFHYESQNSTLPVGLGLTKNILGFLFPFLIILTSYTLIWKTLKKAYEIQKNKPRKDDIFKIILAIVLFFFFSWVPHQIFTFMDVLIQLGLIRDCKIEDIVDTAMPITICLAYFNNCLNPLFYGFLGKKFKKYFLQLLKYIPPKAKSHSNLSTKMSTLSYRPSENGNSSTKKPAPCIEVE

>  <PDB ID(s) of Target Chain>  (1) 


>  <UniProt (SwissProt) Recommended Name of Target Chain>  (1) 
Type-1 angiotensin II receptor

>  <UniProt (SwissProt) Entry Name of Target Chain>  (1) 
AGTR1_BOVIN

>  <UniProt (SwissProt) Primary ID of Target Chain>  (1) 
P25104

>  <UniProt (SwissProt) Secondary ID(s) of Target Chain>  (1) 


>  <UniProt (SwissProt) Alternative ID(s) of Target Chain>  (1) 


>  <UniProt (TrEMBL) Submitted Name of Target Chain>  (1) 


>  <UniProt (TrEMBL) Entry Name of Target Chain>  (1) 


>  <UniProt (TrEMBL) Primary ID of Target Chain>  (1) 


>  <UniProt (TrEMBL) Secondary ID(s) of Target Chain>  (1) 


>  <UniProt (TrEMBL) Alternative ID(s) of Target Chain>  (1) 


$$$$
