
     RDKit          2D

 29 32  0  0  0  0  0  0  0  0999 V2000
    4.5405   -0.8474    0.0000 N   0  0  0  0  0  0  0  0  0  0  0  0
    4.5405   -2.5050    0.0000 C   0  0  0  0  0  0  0  0  0  0  0  0
    6.8918   -7.1577    0.0000 C   0  0  0  0  0  0  0  0  0  0  0  0
    6.0983   -6.9416    0.0000 C   0  0  0  0  0  0  0  0  0  0  0  0
    5.2634   -2.0854    0.0000 C   0  0  0  0  0  0  0  0  0  0  0  0
    7.4817   -6.5719    0.0000 C   0  0  0  0  0  0  0  0  0  0  0  0
    5.2634   -1.2629    0.0000 C   0  0  0  0  0  0  0  0  0  0  0  0
    3.8384   -2.0854    0.0000 C   0  0  0  0  0  0  0  0  0  0  0  0
    3.8384   -1.2629    0.0000 C   0  0  0  0  0  0  0  0  0  0  0  0
    5.8865   -6.1482    0.0000 C   0  0  0  0  0  0  0  0  0  0  0  0
    4.5405   -3.3317    0.0000 O   0  0  0  0  0  0  0  0  0  0  0  0
    7.2698   -5.7619    0.0000 O   0  0  0  0  0  0  0  0  0  0  0  0
    5.0889   -5.9239    0.0000 C   0  0  0  0  0  0  0  0  0  0  0  0
    6.4805   -5.5583    0.0000 C   0  0  0  0  0  0  0  0  0  0  0  0
    8.2793   -6.7838    0.0000 O   0  0  0  0  0  0  0  0  0  0  0  0
    5.2634   -3.7429    0.0000 C   0  0  0  0  0  0  0  0  0  0  0  0
    5.4752   -4.5530    0.0000 C   0  0  0  0  0  0  0  0  0  0  0  0
    6.2604   -4.7649    0.0000 C   0  0  0  0  0  0  0  0  0  0  0  0
    4.8853   -5.1263    0.0000 C   0  0  0  0  0  0  0  0  0  0  0  0
    7.1161   -7.9553    0.0000 C   0  0  0  0  0  0  0  0  0  0  0  0
    5.5126   -7.5273    0.0000 C   0  0  0  0  0  0  0  0  0  0  0  0
    5.9737   -2.5050    0.0000 C   0  0  0  0  0  0  0  0  0  0  0  0
    5.9737   -0.8474    0.0000 C   0  0  0  0  0  0  0  0  0  0  0  0
    3.1156   -0.8474    0.0000 C   0  0  0  0  0  0  0  0  0  0  0  0
    3.1156   -0.0166    0.0000 C   0  0  0  0  0  0  0  0  0  0  0  0
    6.5221   -8.5410    0.0000 C   0  0  0  0  0  0  0  0  0  0  0  0
    5.7203   -8.3167    0.0000 C   0  0  0  0  0  0  0  0  0  0  0  0
    6.6841   -2.0979    0.0000 C   0  0  0  0  0  0  0  0  0  0  0  0
    6.6965   -1.2754    0.0000 C   0  0  0  0  0  0  0  0  0  0  0  0
  2  8  1  0
  3  4  2  0
  4 10  1  0
  5  7  1  0
  6  3  1  0
  7  1  2  0
  8  9  2  0
  9  1  1  0
 10 13  2  0
 11  2  1  0
 12  6  2  0
 13 19  1  0
 14 18  2  0
 15  6  1  0
 16 11  1  0
 17 16  1  0
 18 17  1  0
 19 17  2  0
 20  3  1  0
 21  4  1  0
 22  5  1  0
 23  7  1  0
 24  9  1  0
 25 24  1  0
 26 27  1  0
 27 21  2  0
 28 29  1  0
 29 23  2  0
  5  2  2  0
 28 22  2  0
 14 10  1  0
 26 20  2  0
M  END
>  <From>  (1) 
www.bindingDB.org

>  <BindingDB Reactant_set_id>  (1) 
50005365

>  <Ligand InChI>  (1) 
InChI=1S/C25H21NO3/c1-2-19-15-24(22-9-5-6-10-23(22)26-19)29-16-17-11-13-18(14-12-17)20-7-3-4-8-21(20)25(27)28/h3-15H,2,16H2,1H3,(H,27,28)

>  <Ligand InChI Key>  (1) 
IGFIMRXLCYJXCW-UHFFFAOYSA-N

>  <BindingDB MonomerID>  (1) 
50003381

>  <BindingDB Ligand Name>  (1) 
4'-(2-Ethyl-quinolin-4-yloxymethyl)-biphenyl-2-carboxylic acid::CHEMBL339846

>  <Target Name>  (1) 
Type-1 angiotensin II receptor

>  <Target Source Organism According to Curator or DataSource>  (1) 
Cavia porcellus

>  <Ki (nM)>  (1) 


>  <IC50 (nM)>  (1) 
 170

>  <Kd (nM)>  (1) 


>  <EC50 (nM)>  (1) 


>  <kon (M-1-s-1)>  (1) 


>  <koff (s-1)>  (1) 


>  <pH>  (1) 


>  <Temp C>  (1) 


>  <Curation/DataSource>  (1) 
ChEMBL

>  <Article DOI>  (1) 
10.1021/jm00100a007

>  <BindingDB Entry DOI>  (1) 
10.7270/Q2G44P8Q

>  <PMID>  (1) 
1433210

>  <PubChem AID>  (1) 


>  <Patent Number>  (1) 


>  <Authors>  (1) 
Bradbury, RH; Allott, CP; Dennis, M; Fisher, E; Major, JS; Masek, BB; Oldham, AA; Pearce, RJ; Rankine, N; Revill, JM

>  <Institution>  (1) 
ICI Pharmaceuticals Group

>  <Link to Ligand in BindingDB>  (1) 
http://www.bindingdb.org/bind/chemsearch/marvin/MolStructure.jsp?monomerid=50003381

>  <Link to Ligand-Target Pair in BindingDB>  (1) 
http://www.bindingdb.org/jsp/dbsearch/PrimarySearch_ki.jsp?energyterm=kJ/mole&tag=r21&monomerid=50003381&enzyme=Type-1+angiotensin+II+receptor&column=ki&startPg=0&Increment=50&submit=Search

>  <Ligand HET ID in PDB>  (1) 


>  <PDB ID(s) for Ligand-Target Complex>  (1) 


>  <PubChem CID of Ligand>  (1) 
10475047

>  <PubChem SID of Ligand>  (1) 
103917354

>  <ChEBI ID of Ligand>  (1) 


>  <ChEMBL ID of Ligand>  (1) 
CHEMBL339846

>  <DrugBank ID of Ligand>  (1) 


>  <IUPHAR_GRAC ID of Ligand>  (1) 


>  <KEGG ID of Ligand>  (1) 


>  <ZINC ID of Ligand>  (1) 
ZINC13728625

>  <Number of Protein Chains in Target (bigger than 1 implies a multichain complex)>  (1) 
1

>  <BindingDB Target Chain Sequence>  (1) 
MILNSSTEDGIKRIQDDCPKAGRHSYIFVMIPTLYSIIFVVGIFGNSLVVIVIYFYMKLKTVASVFLLNLALADICFLLTLPLWAVYTAMEYRWPFGNYLCKIASASVSFNLYASVFLLTCLSIDRYLAIVHPMKSRLRRTMLVAKVTCVIIWLMAGLASLPAVIHRNVFFIENTNITVCAFHYESQNSTLPIGLGLTKNILGFMFPFLIILTSYTLIWKALKKAYEIQKNKPRNDDIFKIIMAIVLFFFFSWVPHQIFTFLDVLIQLGIIHDCKISDIVDTAMPITICIAYFNNCLNPLFYGFLGKKFKKYFLQLLKYIPPKAKSHSTLSTKMSTLSYRPSDNVSSSAKKPVQCFEVE

>  <PDB ID(s) of Target Chain>  (1) 
4ZUD

>  <UniProt (SwissProt) Recommended Name of Target Chain>  (1) 
Type-1 angiotensin II receptor

>  <UniProt (SwissProt) Entry Name of Target Chain>  (1) 
AGTR1_CAVPO

>  <UniProt (SwissProt) Primary ID of Target Chain>  (1) 
Q9WV26

>  <UniProt (SwissProt) Secondary ID(s) of Target Chain>  (1) 


>  <UniProt (SwissProt) Alternative ID(s) of Target Chain>  (1) 


>  <UniProt (TrEMBL) Submitted Name of Target Chain>  (1) 


>  <UniProt (TrEMBL) Entry Name of Target Chain>  (1) 


>  <UniProt (TrEMBL) Primary ID of Target Chain>  (1) 


>  <UniProt (TrEMBL) Secondary ID(s) of Target Chain>  (1) 


>  <UniProt (TrEMBL) Alternative ID(s) of Target Chain>  (1) 


$$$$
