
     RDKit          2D

 39 42  0  0  0  0  0  0  0  0999 V2000
    1.8000   -0.1788    0.0000 C   0  0  0  0  0  0  0  0  0  0  0  0
    7.5116   -0.2037    0.0000 S   0  0  0  0  0  0  0  0  0  0  0  0
    2.5108   -0.5986    0.0000 N   0  0  0  0  0  0  0  0  0  0  0  0
    8.2349    0.2078    0.0000 N   0  0  0  0  0  0  0  0  0  0  0  0
    1.5090   -1.4757    0.0000 N   0  0  0  0  0  0  0  0  0  0  0  0
    1.1764   -0.7275    0.0000 C   0  0  0  0  0  0  0  0  0  0  0  0
    2.3238   -1.4009    0.0000 C   0  0  0  0  0  0  0  0  0  0  0  0
    8.9458   -0.2037    0.0000 C   0  0  0  0  0  0  0  0  0  0  0  0
    6.8008   -0.6153    0.0000 N   0  0  0  0  0  0  0  0  0  0  0  0
    1.7252    0.6443    0.0000 C   0  0  0  0  0  0  0  0  0  0  0  0
    6.8008   -1.4383    0.0000 C   0  0  0  0  0  0  0  0  0  0  0  0
    6.0899   -1.8499    0.0000 C   0  0  0  0  0  0  0  0  0  0  0  0
    3.2341   -0.1913    0.0000 C   0  0  0  0  0  0  0  0  0  0  0  0
    7.9314   -0.9270    0.0000 O   0  0  0  0  0  0  0  0  0  0  0  0
    7.1001    0.5113    0.0000 O   0  0  0  0  0  0  0  0  0  0  0  0
    5.3791   -1.4383    0.0000 C   0  0  0  0  0  0  0  0  0  0  0  0
    8.9458   -1.0268    0.0000 O   0  0  0  0  0  0  0  0  0  0  0  0
    9.6566    0.2078    0.0000 C   0  0  0  0  0  0  0  0  0  0  0  0
    2.3986    1.1182    0.0000 O   0  0  0  0  0  0  0  0  0  0  0  0
    4.6641   -1.8499    0.0000 C   0  0  0  0  0  0  0  0  0  0  0  0
    5.3791   -0.6153    0.0000 C   0  0  0  0  0  0  0  0  0  0  0  0
    3.9532   -0.6153    0.0000 C   0  0  0  0  0  0  0  0  0  0  0  0
    0.9769    0.9935    0.0000 O   0  0  0  0  0  0  0  0  0  0  0  0
    4.6641   -0.2037    0.0000 C   0  0  0  0  0  0  0  0  0  0  0  0
    3.9532   -1.4383    0.0000 C   0  0  0  0  0  0  0  0  0  0  0  0
    2.8600   -2.0245    0.0000 C   0  0  0  0  0  0  0  0  0  0  0  0
    7.5199   -1.8499    0.0000 C   0  0  0  0  0  0  0  0  0  0  0  0
    6.0899   -2.6812    0.0000 C   0  0  0  0  0  0  0  0  0  0  0  0
    9.6566    1.0351    0.0000 C   0  0  0  0  0  0  0  0  0  0  0  0
   10.3674   -0.2037    0.0000 C   0  0  0  0  0  0  0  0  0  0  0  0
    0.3035    0.5196    0.0000 C   0  0  0  0  0  0  0  0  0  0  0  0
    2.5939   -2.7977    0.0000 C   0  0  0  0  0  0  0  0  0  0  0  0
    3.1302   -3.4295    0.0000 C   0  0  0  0  0  0  0  0  0  0  0  0
    7.5199   -2.6812    0.0000 C   0  0  0  0  0  0  0  0  0  0  0  0
    6.8008   -3.0928    0.0000 C   0  0  0  0  0  0  0  0  0  0  0  0
    2.8558   -4.2027    0.0000 C   0  0  0  0  0  0  0  0  0  0  0  0
   11.0865    0.2078    0.0000 C   0  0  0  0  0  0  0  0  0  0  0  0
   10.3674    1.4466    0.0000 C   0  0  0  0  0  0  0  0  0  0  0  0
   11.0865    1.0351    0.0000 C   0  0  0  0  0  0  0  0  0  0  0  0
  2  9  1  0
  3  1  1  0
  4  2  1  0
  5  6  1  0
  6  1  2  0
  7  3  1  0
  8  4  1  0
  9 11  1  0
 10  1  1  0
 11 12  1  0
 12 16  1  0
 13  3  1  0
 14  2  2  0
 15  2  2  0
 16 20  2  0
 17  8  2  0
 18  8  1  0
 19 10  2  0
 20 25  1  0
 21 24  2  0
 22 13  1  0
 23 10  1  0
 24 22  1  0
 25 22  2  0
 26  7  1  0
 27 11  2  0
 28 12  2  0
 29 18  2  0
 30 18  1  0
 31 23  1  0
 32 26  1  0
 33 32  1  0
 34 35  2  0
 35 28  1  0
 36 33  1  0
 37 30  2  0
 38 29  1  0
 39 37  1  0
  7  5  2  0
 16 21  1  0
 27 34  1  0
 39 38  2  0
M  END
>  <From>  (1) 
www.bindingDB.org

>  <BindingDB Reactant_set_id>  (1) 
50002605

>  <Ligand InChI>  (1) 
InChI=1S/C29H30N4O5S/c1-3-4-14-27-30-19-26(29(35)38-2)33(27)20-21-15-17-22(18-16-21)24-12-8-9-13-25(24)31-39(36,37)32-28(34)23-10-6-5-7-11-23/h5-13,15-19,31H,3-4,14,20H2,1-2H3,(H,32,34)

>  <Ligand InChI Key>  (1) 
LJILRHZZUWHKEE-UHFFFAOYSA-N

>  <BindingDB MonomerID>  (1) 
50282432

>  <BindingDB Ligand Name>  (1) 
Acyl sulfonamide derivative::CHEMBL349652

>  <Target Name>  (1) 
Type-1 angiotensin II receptor

>  <Target Source Organism According to Curator or DataSource>  (1) 
Oryctolagus cuniculus

>  <Ki (nM)>  (1) 


>  <IC50 (nM)>  (1) 
 20

>  <Kd (nM)>  (1) 


>  <EC50 (nM)>  (1) 


>  <kon (M-1-s-1)>  (1) 


>  <koff (s-1)>  (1) 


>  <pH>  (1) 


>  <Temp C>  (1) 


>  <Curation/DataSource>  (1) 
ChEMBL

>  <Article DOI>  (1) 
10.1016/S0960-894X(01)81124-0

>  <BindingDB Entry DOI>  (1) 
10.7270/Q2NS0TVK

>  <PMID>  (1) 


>  <PubChem AID>  (1) 


>  <Patent Number>  (1) 


>  <Authors>  (1) 
Naylor, EM; Chakravarty, PK; Costello, CA; Chang, RS; Chen, TB; Faust, KA; Lotti, VJ; Kivlighn, SD; Zingaro, GJ; Siegl, PK; Wong, PC; Carini, DJ; Wexler, RR; Patchett, AA; Greenlee, WJ

>  <Institution>  (1) 
TBA

>  <Link to Ligand in BindingDB>  (1) 
http://www.bindingdb.org/bind/chemsearch/marvin/MolStructure.jsp?monomerid=50282432

>  <Link to Ligand-Target Pair in BindingDB>  (1) 
http://www.bindingdb.org/jsp/dbsearch/PrimarySearch_ki.jsp?energyterm=kJ/mole&tag=r21&monomerid=50282432&enzyme=Type-1+angiotensin+II+receptor&column=ki&startPg=0&Increment=50&submit=Search

>  <Ligand HET ID in PDB>  (1) 


>  <PDB ID(s) for Ligand-Target Complex>  (1) 


>  <PubChem CID of Ligand>  (1) 
44377086

>  <PubChem SID of Ligand>  (1) 
104124106

>  <ChEBI ID of Ligand>  (1) 


>  <ChEMBL ID of Ligand>  (1) 
CHEMBL349652

>  <DrugBank ID of Ligand>  (1) 


>  <IUPHAR_GRAC ID of Ligand>  (1) 


>  <KEGG ID of Ligand>  (1) 


>  <ZINC ID of Ligand>  (1) 
ZINC27850970

>  <Number of Protein Chains in Target (bigger than 1 implies a multichain complex)>  (1) 
1

>  <BindingDB Target Chain Sequence>  (1) 
MMLNSSTEDGIKRIQDDCPKAGRHNYIFVMIPTLYSIIFVVGIFGNSLAVIVIYFYMKLKTVASVFLLNLALADLCFLLTLPLWAVYTAMEYRWPFGNYLCKIASASVSFNLYASVFLLTCLSIDRYLAIVHPMKSRLRRTMLVAKVTCIIIWLLAGLASLPAIIHRNVFFIENTNITVCAFHYESQNSTLPIGLGLTKNILGFLFPFLIILTSYTLIWKALKKAYEIQKNKPRNDDIFKIIMAIVLFFFFSWVPHQIFTFLDVLIQLGVIHDCRIADIVDTAMPITICIAYFNNCLNPLFYGFLGKKFKKYFLQLLKYIPPKAKSHSNLSTKMSTLSYRPSDNVSSSSKKPVPCFEVE

>  <PDB ID(s) of Target Chain>  (1) 
6DO1,6OS0,6OS1,6OS2

>  <UniProt (SwissProt) Recommended Name of Target Chain>  (1) 
Type-1 angiotensin II receptor

>  <UniProt (SwissProt) Entry Name of Target Chain>  (1) 
AGTR1_RABIT

>  <UniProt (SwissProt) Primary ID of Target Chain>  (1) 
P34976

>  <UniProt (SwissProt) Secondary ID(s) of Target Chain>  (1) 


>  <UniProt (SwissProt) Alternative ID(s) of Target Chain>  (1) 


>  <UniProt (TrEMBL) Submitted Name of Target Chain>  (1) 


>  <UniProt (TrEMBL) Entry Name of Target Chain>  (1) 


>  <UniProt (TrEMBL) Primary ID of Target Chain>  (1) 


>  <UniProt (TrEMBL) Secondary ID(s) of Target Chain>  (1) 


>  <UniProt (TrEMBL) Alternative ID(s) of Target Chain>  (1) 


$$$$
