
     RDKit          2D

 44 50  0  0  1  0  0  0  0  0999 V2000
    3.3875   -1.9667    0.0000 C   0  0  0  0  0  0  0  0  0  0  0  0
    6.9625   -1.5417    0.0000 N   0  0  0  0  0  0  0  0  0  0  0  0
    6.2500   -1.9667    0.0000 C   0  0  0  0  0  0  0  0  0  0  0  0
    5.5292   -1.5542    0.0000 C   0  0  0  0  0  0  0  0  0  0  0  0
    3.2917   -2.7792    0.0000 O   0  0  0  0  0  0  0  0  0  0  0  0
    6.9542   -0.7167    0.0000 C   0  0  0  0  0  0  0  0  0  0  0  0
    6.2417   -0.3042    0.0000 N   0  0  0  0  0  0  0  0  0  0  0  0
    9.1167   -5.2292    0.0000 C   0  0  0  0  0  0  0  0  0  0  0  0
   10.3542   -4.5167    0.0000 N   0  0  0  0  0  0  0  0  0  0  0  0
    2.4792   -2.9542    0.0000 N   0  0  0  0  0  0  0  0  0  0  0  0
    9.5292   -4.5167    0.0000 N   0  0  0  0  0  0  0  0  0  0  0  0
   10.7625   -5.2292    0.0000 N   0  0  0  0  0  0  0  0  0  0  0  0
    2.6292   -1.6167    0.0000 C   0  0  0  0  0  0  0  0  0  0  0  0
    5.5292   -0.7292    0.0000 C   0  0  0  0  0  0  0  0  0  0  0  0
    4.1042   -1.5542    0.0000 C   0  0  0  0  0  0  0  0  0  0  0  0
    9.8292   -5.6417    0.0000 N   0  0  0  0  0  0  0  0  0  0  0  0
    4.8167   -1.9667    0.0000 C   0  0  0  0  0  0  0  0  0  0  0  0
    3.3792   -1.1292    0.0000 C   0  0  0  0  0  0  0  0  0  0  0  0
    8.4125   -5.6542    0.0000 C   0  0  0  0  0  0  0  0  0  0  0  0
    7.6917   -5.2542    0.0000 C   0  0  0  0  0  0  0  0  0  0  0  0
    2.0667   -2.2292    0.0000 C   0  0  0  0  0  0  0  0  0  0  0  0
    7.6792   -1.9542    0.0000 C   0  0  0  0  0  0  0  0  0  0  0  0
    6.2500   -2.7917    0.0000 O   0  0  0  0  0  0  0  0  0  0  0  0
    7.6917   -4.4292    0.0000 C   0  0  0  0  0  0  0  0  0  0  0  0
    4.8167   -0.3167    0.0000 C   0  0  0  0  0  0  0  0  0  0  0  0
    4.1042   -0.7292    0.0000 C   0  0  0  0  0  0  0  0  0  0  0  0
    3.7042   -0.4000    0.0000 O   0  0  0  0  0  0  0  0  0  0  0  0
    8.4042   -4.0042    0.0000 C   0  0  0  0  0  0  0  0  0  0  0  0
    6.9750   -4.0167    0.0000 C   0  0  0  0  0  0  0  0  0  0  0  0
    7.6792   -2.7792    0.0000 C   0  0  0  0  0  0  0  0  0  0  0  0
    2.7917   -0.5417    0.0000 O   0  0  0  0  0  0  0  0  0  0  0  0
    1.9292   -3.5542    0.0000 C   0  0  0  0  0  0  0  0  0  0  0  0
    7.6667   -0.3042    0.0000 C   0  0  0  0  0  0  0  0  0  0  0  0
    6.9667   -3.1917    0.0000 C   0  0  0  0  0  0  0  0  0  0  0  0
    8.4000   -3.1792    0.0000 C   0  0  0  0  0  0  0  0  0  0  0  0
    8.4167   -6.4792    0.0000 C   0  0  0  0  0  0  0  0  0  0  0  0
    6.9792   -5.6667    0.0000 C   0  0  0  0  0  0  0  0  0  0  0  0
    1.2667   -2.4042    0.0000 C   0  0  0  0  0  0  0  0  0  0  0  0
    1.1792   -3.2167    0.0000 C   0  0  0  0  0  0  0  0  0  0  0  0
    8.3875   -0.7042    0.0000 C   0  0  0  0  0  0  0  0  0  0  0  0
    9.1000   -0.2917    0.0000 C   0  0  0  0  0  0  0  0  0  0  0  0
    6.9792   -6.4917    0.0000 C   0  0  0  0  0  0  0  0  0  0  0  0
    7.7042   -6.8917    0.0000 C   0  0  0  0  0  0  0  0  0  0  0  0
    9.8167   -0.7042    0.0000 C   0  0  0  0  0  0  0  0  0  0  0  0
  2  3  1  0
  3  4  1  0
  4 17  2  0
  1  5  1  0
  6  7  2  0
  7 14  1  0
  8 19  1  0
  9 11  1  0
 10  5  1  0
 11  8  1  0
 12 16  1  0
  1 13  1  0
 14 25  2  0
  1 15  1  0
 16  8  2  0
 17 15  1  0
  1 18  1  6
 19 20  1  0
 20 24  1  0
 21 13  1  6
 22  2  1  0
 23  3  2  0
 24 28  2  0
 25 26  1  0
 26 15  2  0
 27 18  2  0
 28 35  1  0
 29 34  2  0
 30 22  1  0
 31 18  1  0
 32 10  1  0
 33  6  1  0
 34 30  1  0
 35 30  2  0
 36 19  2  0
 37 20  2  0
 21 38  1  0
 39 38  1  0
 40 33  1  0
 41 40  1  0
 42 37  1  0
 43 42  2  0
 44 41  1  0
 21 10  1  0
 14  4  1  0
 32 39  1  0
  2  6  1  0
 29 24  1  0
 43 36  1  0
  9 12  2  0
M  END
>  <From>  (1) 
www.bindingDB.org

>  <BindingDB Reactant_set_id>  (1) 
50468362

>  <Ligand InChI>  (1) 
InChI=1S/C33H33N7O4/c1-2-3-10-29-34-28-16-15-23(33(32(42)43)19-24-7-6-17-40(24)44-33)18-27(28)31(41)39(29)20-21-11-13-22(14-12-21)25-8-4-5-9-26(25)30-35-37-38-36-30/h4-5,8-9,11-16,18,24H,2-3,6-7,10,17,19-20H2,1H3,(H,42,43)(H,35,36,37,38)/t24-,33+/m1/s1

>  <Ligand InChI Key>  (1) 
GXXPCSPJFNSFDW-IANOAQMISA-N

>  <BindingDB MonomerID>  (1) 
50282807

>  <BindingDB Ligand Name>  (1) 
(2S,3aR)-2-{2-Butyl-4-oxo-3-[2'-(1H-tetrazol-5-yl)-biphenyl-4-ylmethyl]-3,4-dihydro-quinazolin-6-yl}-hexahydro-pyrrolo[1,2-b]isoxazole-2-carboxylic acid::CHEMBL45805

>  <Target Name>  (1) 
Type-1 angiotensin II receptor

>  <Target Source Organism According to Curator or DataSource>  (1) 
Bos taurus

>  <Ki (nM)>  (1) 


>  <IC50 (nM)>  (1) 
 46

>  <Kd (nM)>  (1) 


>  <EC50 (nM)>  (1) 


>  <kon (M-1-s-1)>  (1) 


>  <koff (s-1)>  (1) 


>  <pH>  (1) 


>  <Temp C>  (1) 


>  <Curation/DataSource>  (1) 
ChEMBL

>  <Article DOI>  (1) 
10.1016/S0960-894X(00)80365-0

>  <BindingDB Entry DOI>  (1) 
10.7270/Q2JS9QB3

>  <PMID>  (1) 


>  <PubChem AID>  (1) 


>  <Patent Number>  (1) 


>  <Authors>  (1) 
Levin, JI; Chan, PS; Coupet, J; Bailey, TK; Vice, G; Thibault, L; F., L; Venkatesan, AM; Cobuzzi, A

>  <Institution>  (1) 
TBA

>  <Link to Ligand in BindingDB>  (1) 
http://www.bindingdb.org/bind/chemsearch/marvin/MolStructure.jsp?monomerid=50282807

>  <Link to Ligand-Target Pair in BindingDB>  (1) 
http://www.bindingdb.org/jsp/dbsearch/PrimarySearch_ki.jsp?energyterm=kJ/mole&tag=r21&monomerid=50282807&enzyme=Type-1+angiotensin+II+receptor&column=ki&startPg=0&Increment=50&submit=Search

>  <Ligand HET ID in PDB>  (1) 


>  <PDB ID(s) for Ligand-Target Complex>  (1) 


>  <PubChem CID of Ligand>  (1) 
18666499

>  <PubChem SID of Ligand>  (1) 
104124481

>  <ChEBI ID of Ligand>  (1) 


>  <ChEMBL ID of Ligand>  (1) 
CHEMBL45805

>  <DrugBank ID of Ligand>  (1) 


>  <IUPHAR_GRAC ID of Ligand>  (1) 


>  <KEGG ID of Ligand>  (1) 


>  <ZINC ID of Ligand>  (1) 
ZINC29408362

>  <Number of Protein Chains in Target (bigger than 1 implies a multichain complex)>  (1) 
1

>  <BindingDB Target Chain Sequence>  (1) 
MILNSSTEDGIKRIQDDCPKAGRHNYIFIMIPTLYSIIFVVGIFGNSLVVIVIYFYMKLKTVASVFLLNLALADLCFLLTLPLWAVYTAMEYRWPFGNYLCKIASASVSFNLYASVFLLTCLSIDRYLAIVHPMKSRLRRTMLVAKVTCIIIWLLAGLASLPTIIHRNVFFIENTNITVCAFHYESQNSTLPVGLGLTKNILGFLFPFLIILTSYTLIWKTLKKAYEIQKNKPRKDDIFKIILAIVLFFFFSWVPHQIFTFMDVLIQLGLIRDCKIEDIVDTAMPITICLAYFNNCLNPLFYGFLGKKFKKYFLQLLKYIPPKAKSHSNLSTKMSTLSYRPSENGNSSTKKPAPCIEVE

>  <PDB ID(s) of Target Chain>  (1) 


>  <UniProt (SwissProt) Recommended Name of Target Chain>  (1) 
Type-1 angiotensin II receptor

>  <UniProt (SwissProt) Entry Name of Target Chain>  (1) 
AGTR1_BOVIN

>  <UniProt (SwissProt) Primary ID of Target Chain>  (1) 
P25104

>  <UniProt (SwissProt) Secondary ID(s) of Target Chain>  (1) 


>  <UniProt (SwissProt) Alternative ID(s) of Target Chain>  (1) 


>  <UniProt (TrEMBL) Submitted Name of Target Chain>  (1) 


>  <UniProt (TrEMBL) Entry Name of Target Chain>  (1) 


>  <UniProt (TrEMBL) Primary ID of Target Chain>  (1) 


>  <UniProt (TrEMBL) Secondary ID(s) of Target Chain>  (1) 


>  <UniProt (TrEMBL) Alternative ID(s) of Target Chain>  (1) 


$$$$
