
     RDKit          2D

 38 41  0  0  0  0  0  0  0  0999 V2000
    6.3792   -8.5667    0.0000 N   0  0  0  0  0  0  0  0  0  0  0  0
    6.0792   -7.6375    0.0000 C   0  0  0  0  0  0  0  0  0  0  0  0
    6.8667   -8.2125    0.0000 C   0  0  0  0  0  0  0  0  0  0  0  0
    6.6792   -7.6375    0.0000 N   0  0  0  0  0  0  0  0  0  0  0  0
    5.9000   -8.2125    0.0000 C   0  0  0  0  0  0  0  0  0  0  0  0
    5.7292   -7.1542    0.0000 C   0  0  0  0  0  0  0  0  0  0  0  0
    4.7292   -6.7667    0.0000 N   0  0  0  0  0  0  0  0  0  0  0  0
    5.1375   -7.2167    0.0000 C   0  0  0  0  0  0  0  0  0  0  0  0
    4.2500   -7.6042    0.0000 N   0  0  0  0  0  0  0  0  0  0  0  0
    4.1875   -7.0125    0.0000 C   0  0  0  0  0  0  0  0  0  0  0  0
    4.8292   -7.7292    0.0000 C   0  0  0  0  0  0  0  0  0  0  0  0
    7.2625   -4.8542    0.0000 C   0  0  0  0  0  0  0  0  0  0  0  0
    7.1417   -5.4417    0.0000 C   0  0  0  0  0  0  0  0  0  0  0  0
    6.8125   -4.4542    0.0000 C   0  0  0  0  0  0  0  0  0  0  0  0
    4.8542   -6.1792    0.0000 C   0  0  0  0  0  0  0  0  0  0  0  0
    7.4417   -8.3917    0.0000 O   0  0  0  0  0  0  0  0  0  0  0  0
    6.5667   -5.6292    0.0000 C   0  0  0  0  0  0  0  0  0  0  0  0
    5.3292   -8.3917    0.0000 O   0  0  0  0  0  0  0  0  0  0  0  0
    6.2417   -4.6417    0.0000 O   0  0  0  0  0  0  0  0  0  0  0  0
    6.1167   -5.2250    0.0000 C   0  0  0  0  0  0  0  0  0  0  0  0
    6.4417   -6.2167    0.0000 C   0  0  0  0  0  0  0  0  0  0  0  0
    5.4292   -5.9917    0.0000 C   0  0  0  0  0  0  0  0  0  0  0  0
    7.0375   -7.1542    0.0000 C   0  0  0  0  0  0  0  0  0  0  0  0
    6.9375   -3.8667    0.0000 O   0  0  0  0  0  0  0  0  0  0  0  0
    5.5542   -5.4125    0.0000 C   0  0  0  0  0  0  0  0  0  0  0  0
    5.8750   -6.4000    0.0000 C   0  0  0  0  0  0  0  0  0  0  0  0
    3.6667   -6.7125    0.0000 C   0  0  0  0  0  0  0  0  0  0  0  0
    7.8292   -4.6667    0.0000 C   0  0  0  0  0  0  0  0  0  0  0  0
    7.5792   -5.8417    0.0000 C   0  0  0  0  0  0  0  0  0  0  0  0
    7.5042   -3.6792    0.0000 C   0  0  0  0  0  0  0  0  0  0  0  0
    7.6292   -7.2167    0.0000 C   0  0  0  0  0  0  0  0  0  0  0  0
    3.1417   -7.0125    0.0000 C   0  0  0  0  0  0  0  0  0  0  0  0
    7.9875   -6.7292    0.0000 C   0  0  0  0  0  0  0  0  0  0  0  0
    2.6250   -6.7125    0.0000 C   0  0  0  0  0  0  0  0  0  0  0  0
    8.1542   -5.6542    0.0000 C   0  0  0  0  0  0  0  0  0  0  0  0
    8.2792   -5.0667    0.0000 C   0  0  0  0  0  0  0  0  0  0  0  0
    8.5792   -6.7917    0.0000 C   0  0  0  0  0  0  0  0  0  0  0  0
    2.1042   -7.0125    0.0000 C   0  0  0  0  0  0  0  0  0  0  0  0
  2  5  1  0
  3  1  1  0
  4  3  1  0
  5  1  1  0
  6  2  2  0
  7  8  1  0
  8  6  1  0
  9 11  1  0
 10  7  1  0
 11  8  2  0
 12 13  2  0
 13 17  1  0
 14 12  1  0
 15  7  1  0
 16  3  2  0
 17 21  2  0
 18  5  2  0
 19 14  2  0
 20 25  2  0
 21 26  1  0
 22 15  1  0
 23  4  1  0
 24 14  1  0
 25 22  1  0
 26 22  2  0
 27 10  1  0
 28 12  1  0
 29 13  1  0
 30 24  1  0
 31 23  1  0
 32 27  1  0
 33 31  1  0
 34 32  1  0
 35 29  2  0
 36 35  1  0
 37 33  1  0
 38 34  1  0
  2  4  1  0
 10  9  2  0
 17 20  1  0
 28 36  2  0
M  END
>  <From>  (1) 
www.bindingDB.org

>  <BindingDB Reactant_set_id>  (1) 
51186027

>  <Ligand InChI>  (1) 
InChI=1S/C30H34N4O4/c1-4-6-12-27-31-19-23(18-26-28(35)32-30(37)33(26)17-7-5-2)34(27)20-21-13-15-22(16-14-21)24-10-8-9-11-25(24)29(36)38-3/h8-11,13-16,18-19H,4-7,12,17,20H2,1-3H3,(H,32,35,37)/b26-18+

>  <Ligand InChI Key>  (1) 
QWDAOLJZTCHRAW-NLRVBDNBSA-N

>  <BindingDB MonomerID>  (1) 
50487647

>  <BindingDB Ligand Name>  (1) 
CHEMBL125454

>  <Target Name>  (1) 
Type-1 angiotensin II receptor

>  <Target Source Organism According to Curator or DataSource>  (1) 
Homo sapiens

>  <Ki (nM)>  (1) 


>  <IC50 (nM)>  (1) 
 9.9

>  <Kd (nM)>  (1) 


>  <EC50 (nM)>  (1) 


>  <kon (M-1-s-1)>  (1) 


>  <koff (s-1)>  (1) 


>  <pH>  (1) 


>  <Temp C>  (1) 


>  <Curation/DataSource>  (1) 
ChEMBL

>  <Article DOI>  (1) 
10.1007/s00044-009-9205-9

>  <BindingDB Entry DOI>  (1) 
10.7270/Q2CC13K2

>  <PMID>  (1) 


>  <PubChem AID>  (1) 


>  <Patent Number>  (1) 


>  <Authors>  (1) 
n/a

>  <Institution>  (1) 
n/a

>  <Link to Ligand in BindingDB>  (1) 
http://www.bindingdb.org/bind/chemsearch/marvin/MolStructure.jsp?monomerid=50487647

>  <Link to Ligand-Target Pair in BindingDB>  (1) 
http://www.bindingdb.org/jsp/dbsearch/PrimarySearch_ki.jsp?energyterm=kJ/mole&tag=r21&monomerid=50487647&enzyme=Type-1+angiotensin+II+receptor&column=ki&startPg=0&Increment=50&submit=Search

>  <Ligand HET ID in PDB>  (1) 


>  <PDB ID(s) for Ligand-Target Complex>  (1) 


>  <PubChem CID of Ligand>  (1) 
10006693

>  <PubChem SID of Ligand>  (1) 
433954912

>  <ChEBI ID of Ligand>  (1) 


>  <ChEMBL ID of Ligand>  (1) 


>  <DrugBank ID of Ligand>  (1) 


>  <IUPHAR_GRAC ID of Ligand>  (1) 


>  <KEGG ID of Ligand>  (1) 


>  <ZINC ID of Ligand>  (1) 


>  <Number of Protein Chains in Target (bigger than 1 implies a multichain complex)>  (1) 
1

>  <BindingDB Target Chain Sequence>  (1) 
MILNSSTEDGIKRIQDDCPKAGRHNYIFVMIPTLYSIIFVVGIFGNSLVVIVIYFYMKLKTVASVFLLNLALADLCFLLTLPLWAVYTAMEYRWPFGNYLCKIASASVSFNLYASVFLLTCLSIDRYLAIVHPMKSRLRRTMLVAKVTCIIIWLLAGLASLPAIIHRNVFFIENTNITVCAFHYESQNSTLPIGLGLTKNILGFLFPFLIILTSYTLIWKALKKAYEIQKNKPRNDDIFKIIMAIVLFFFFSWIPHQIFTFLDVLIQLGIIRDCRIADIVDTAMPITICIAYFNNCLNPLFYGFLGKKFKRYFLQLLKYIPPKAKSHSNLSTKMSTLSYRPSDNVSSSTKKPAPCFEVE

>  <PDB ID(s) of Target Chain>  (1) 
6DO1,6OS0,6OS1,6OS2

>  <UniProt (SwissProt) Recommended Name of Target Chain>  (1) 
Type-1 angiotensin II receptor

>  <UniProt (SwissProt) Entry Name of Target Chain>  (1) 
AGTR1_HUMAN

>  <UniProt (SwissProt) Primary ID of Target Chain>  (1) 
P30556

>  <UniProt (SwissProt) Secondary ID(s) of Target Chain>  (1) 
Q13725 Q8TBK4

>  <UniProt (SwissProt) Alternative ID(s) of Target Chain>  (1) 


>  <UniProt (TrEMBL) Submitted Name of Target Chain>  (1) 


>  <UniProt (TrEMBL) Entry Name of Target Chain>  (1) 


>  <UniProt (TrEMBL) Primary ID of Target Chain>  (1) 


>  <UniProt (TrEMBL) Secondary ID(s) of Target Chain>  (1) 


>  <UniProt (TrEMBL) Alternative ID(s) of Target Chain>  (1) 


$$$$
