
     RDKit          2D

 42 46  0  0  0  0  0  0  0  0999 V2000
    3.8292   -1.7542    0.0000 N   0  0  0  0  0  0  0  0  0  0  0  0
    4.5417   -1.3417    0.0000 C   0  0  0  0  0  0  0  0  0  0  0  0
    4.5292   -0.5167    0.0000 C   0  0  0  0  0  0  0  0  0  0  0  0
    3.1042   -1.3417    0.0000 C   0  0  0  0  0  0  0  0  0  0  0  0
    3.1042   -0.5292    0.0000 N   0  0  0  0  0  0  0  0  0  0  0  0
    5.8417   -5.6292    0.0000 C   0  0  0  0  0  0  0  0  0  0  0  0
    4.5042   -5.6417    0.0000 N   0  0  0  0  0  0  0  0  0  0  0  0
    5.1667   -5.1542    0.0000 N   0  0  0  0  0  0  0  0  0  0  0  0
    4.7542   -6.4292    0.0000 N   0  0  0  0  0  0  0  0  0  0  0  0
    3.8167   -0.1042    0.0000 C   0  0  0  0  0  0  0  0  0  0  0  0
    5.5792   -6.4167    0.0000 N   0  0  0  0  0  0  0  0  0  0  0  0
    6.6667    0.7333    0.0000 C   0  0  0  0  0  0  0  0  0  0  0  0
    5.2417   -0.1042    0.0000 C   0  0  0  0  0  0  0  0  0  0  0  0
    6.5542   -5.2292    0.0000 C   0  0  0  0  0  0  0  0  0  0  0  0
    5.2417    0.7208    0.0000 C   0  0  0  0  0  0  0  0  0  0  0  0
    5.9542    1.1458    0.0000 N   0  0  0  0  0  0  0  0  0  0  0  0
    6.5542   -4.4042    0.0000 C   0  0  0  0  0  0  0  0  0  0  0  0
    3.8292   -2.5792    0.0000 C   0  0  0  0  0  0  0  0  0  0  0  0
    5.2542   -1.7417    0.0000 O   0  0  0  0  0  0  0  0  0  0  0  0
    7.3792    1.1458    0.0000 O   0  0  0  0  0  0  0  0  0  0  0  0
    5.8417   -3.9917    0.0000 C   0  0  0  0  0  0  0  0  0  0  0  0
    6.6792   -0.0917    0.0000 O   0  0  0  0  0  0  0  0  0  0  0  0
    3.8167    0.7208    0.0000 C   0  0  0  0  0  0  0  0  0  0  0  0
    4.5167    1.1333    0.0000 C   0  0  0  0  0  0  0  0  0  0  0  0
    5.8417   -3.1542    0.0000 C   0  0  0  0  0  0  0  0  0  0  0  0
    5.1167   -4.4042    0.0000 C   0  0  0  0  0  0  0  0  0  0  0  0
    4.4167   -3.1667    0.0000 C   0  0  0  0  0  0  0  0  0  0  0  0
    2.4042   -1.7667    0.0000 C   0  0  0  0  0  0  0  0  0  0  0  0
    8.0917    0.7458    0.0000 C   0  0  0  0  0  0  0  0  0  0  0  0
    4.4042   -3.9917    0.0000 C   0  0  0  0  0  0  0  0  0  0  0  0
    5.1167   -2.7417    0.0000 C   0  0  0  0  0  0  0  0  0  0  0  0
    7.2667   -5.6292    0.0000 C   0  0  0  0  0  0  0  0  0  0  0  0
    5.9417    1.9708    0.0000 C   0  0  0  0  0  0  0  0  0  0  0  0
    7.2667   -3.9792    0.0000 C   0  0  0  0  0  0  0  0  0  0  0  0
    8.8042    1.1583    0.0000 C   0  0  0  0  0  0  0  0  0  0  0  0
    1.6792   -1.3542    0.0000 C   0  0  0  0  0  0  0  0  0  0  0  0
    0.9667   -1.7792    0.0000 C   0  0  0  0  0  0  0  0  0  0  0  0
    8.8042    1.9958    0.0000 C   0  0  0  0  0  0  0  0  0  0  0  0
    9.5292    0.7583    0.0000 C   0  0  0  0  0  0  0  0  0  0  0  0
    7.9792   -5.2167    0.0000 C   0  0  0  0  0  0  0  0  0  0  0  0
    7.9792   -4.3917    0.0000 C   0  0  0  0  0  0  0  0  0  0  0  0
    0.2542   -1.3667    0.0000 C   0  0  0  0  0  0  0  0  0  0  0  0
  2  1  1  0
  3  2  1  0
  4  1  1  0
  5  4  2  0
  6 14  1  0
  7  8  1  0
  8  6  1  0
  9 11  1  0
 10  5  1  0
 11  6  2  0
 12 16  1  0
 13  3  2  0
 14 17  1  0
 15 13  1  0
 16 15  1  0
 17 21  1  0
 18  1  1  0
 19  2  2  0
 20 12  1  0
 21 25  2  0
 22 12  2  0
 23 10  2  0
 24 23  1  0
 25 31  1  0
 26 30  2  0
 27 18  1  0
 28  4  1  0
 29 20  1  0
 30 27  1  0
 31 27  2  0
 32 14  2  0
 33 16  1  0
 34 17  2  0
 35 29  1  0
 36 28  1  0
 37 36  1  0
 38 35  1  0
 39 35  1  0
 40 41  2  0
 41 34  1  0
 42 37  1  0
 10  3  1  0
 26 21  1  0
 15 24  2  0
 32 40  1  0
  7  9  2  0
M  END
>  <From>  (1) 
www.bindingDB.org

>  <BindingDB Reactant_set_id>  (1) 
50061166

>  <Ligand InChI>  (1) 
InChI=1S/C32H35N7O3/c1-5-6-11-29-33-28-17-16-24(38(4)32(41)42-20-21(2)3)18-27(28)31(40)39(29)19-22-12-14-23(15-13-22)25-9-7-8-10-26(25)30-34-36-37-35-30/h7-10,12-18,21H,5-6,11,19-20H2,1-4H3,(H,34,35,36,37)

>  <Ligand InChI Key>  (1) 
UCZOYWFJUMVFHA-UHFFFAOYSA-N

>  <BindingDB MonomerID>  (1) 
50041963

>  <BindingDB Ligand Name>  (1) 
CHEMBL24861::{2-Butyl-4-oxo-3-[2'-(1H-tetrazol-5-yl)-biphenyl-4-ylmethyl]-3,4-dihydro-quinazolin-6-yl}-methyl-carbamic acid isobutyl ester::{2-Butyl-4-oxo-3-[2'-(2H-tetrazol-5-yl)-biphenyl-4-ylmethyl]-3,4-dihydro-quinazolin-6-yl}-methyl-carbamic acid isobutyl ester

>  <Target Name>  (1) 
Type-1 angiotensin II receptor

>  <Target Source Organism According to Curator or DataSource>  (1) 
Oryctolagus cuniculus

>  <Ki (nM)>  (1) 


>  <IC50 (nM)>  (1) 
 2.5

>  <Kd (nM)>  (1) 


>  <EC50 (nM)>  (1) 


>  <kon (M-1-s-1)>  (1) 


>  <koff (s-1)>  (1) 


>  <pH>  (1) 


>  <Temp C>  (1) 


>  <Curation/DataSource>  (1) 
ChEMBL

>  <Article DOI>  (1) 
10.1021/jm00073a024

>  <BindingDB Entry DOI>  (1) 
10.7270/Q2QR4W6P

>  <PMID>  (1) 
8230109

>  <PubChem AID>  (1) 


>  <Patent Number>  (1) 


>  <Authors>  (1) 
de Laszlo, SE; Quagliato, CS; Greenlee, WJ; Patchett, AA; Chang, RS; Lotti, VJ; Chen, TB; Scheck, SA; Faust, KA; Kivlighn, SS

>  <Institution>  (1) 
Merck Research Laboratories

>  <Link to Ligand in BindingDB>  (1) 
http://www.bindingdb.org/bind/chemsearch/marvin/MolStructure.jsp?monomerid=50041963

>  <Link to Ligand-Target Pair in BindingDB>  (1) 
http://www.bindingdb.org/jsp/dbsearch/PrimarySearch_ki.jsp?energyterm=kJ/mole&tag=r21&monomerid=50041963&enzyme=Type-1+angiotensin+II+receptor&column=ki&startPg=0&Increment=50&submit=Search

>  <Ligand HET ID in PDB>  (1) 


>  <PDB ID(s) for Ligand-Target Complex>  (1) 


>  <PubChem CID of Ligand>  (1) 
15231091

>  <PubChem SID of Ligand>  (1) 
103973642

>  <ChEBI ID of Ligand>  (1) 


>  <ChEMBL ID of Ligand>  (1) 
CHEMBL24861

>  <DrugBank ID of Ligand>  (1) 


>  <IUPHAR_GRAC ID of Ligand>  (1) 


>  <KEGG ID of Ligand>  (1) 


>  <ZINC ID of Ligand>  (1) 
ZINC28758413

>  <Number of Protein Chains in Target (bigger than 1 implies a multichain complex)>  (1) 
1

>  <BindingDB Target Chain Sequence>  (1) 
MMLNSSTEDGIKRIQDDCPKAGRHNYIFVMIPTLYSIIFVVGIFGNSLAVIVIYFYMKLKTVASVFLLNLALADLCFLLTLPLWAVYTAMEYRWPFGNYLCKIASASVSFNLYASVFLLTCLSIDRYLAIVHPMKSRLRRTMLVAKVTCIIIWLLAGLASLPAIIHRNVFFIENTNITVCAFHYESQNSTLPIGLGLTKNILGFLFPFLIILTSYTLIWKALKKAYEIQKNKPRNDDIFKIIMAIVLFFFFSWVPHQIFTFLDVLIQLGVIHDCRIADIVDTAMPITICIAYFNNCLNPLFYGFLGKKFKKYFLQLLKYIPPKAKSHSNLSTKMSTLSYRPSDNVSSSSKKPVPCFEVE

>  <PDB ID(s) of Target Chain>  (1) 
6DO1,6OS0,6OS1,6OS2

>  <UniProt (SwissProt) Recommended Name of Target Chain>  (1) 
Type-1 angiotensin II receptor

>  <UniProt (SwissProt) Entry Name of Target Chain>  (1) 
AGTR1_RABIT

>  <UniProt (SwissProt) Primary ID of Target Chain>  (1) 
P34976

>  <UniProt (SwissProt) Secondary ID(s) of Target Chain>  (1) 


>  <UniProt (SwissProt) Alternative ID(s) of Target Chain>  (1) 


>  <UniProt (TrEMBL) Submitted Name of Target Chain>  (1) 


>  <UniProt (TrEMBL) Entry Name of Target Chain>  (1) 


>  <UniProt (TrEMBL) Primary ID of Target Chain>  (1) 


>  <UniProt (TrEMBL) Secondary ID(s) of Target Chain>  (1) 


>  <UniProt (TrEMBL) Alternative ID(s) of Target Chain>  (1) 


$$$$
