
     RDKit          2D

 31 34  0  0  0  0  0  0  0  0999 V2000
   -0.6625   -0.3292    0.0000 N   0  0  0  0  0  0  0  0  0  0  0  0
   -1.0750    0.9333    0.0000 N   0  0  0  0  0  0  0  0  0  0  0  0
    0.0042    0.1458    0.0000 N   0  0  0  0  0  0  0  0  0  0  0  0
    2.9000   -1.5667    0.0000 C   0  0  0  0  0  0  0  0  0  0  0  0
   -1.3250    0.1458    0.0000 C   0  0  0  0  0  0  0  0  0  0  0  0
    2.4750   -0.3042    0.0000 N   0  0  0  0  0  0  0  0  0  0  0  0
    2.2250   -1.0917    0.0000 N   0  0  0  0  0  0  0  0  0  0  0  0
    3.3000   -0.2917    0.0000 N   0  0  0  0  0  0  0  0  0  0  0  0
   -0.2500    0.9333    0.0000 C   0  0  0  0  0  0  0  0  0  0  0  0
    3.5625   -1.0792    0.0000 N   0  0  0  0  0  0  0  0  0  0  0  0
    2.9042   -2.3917    0.0000 C   0  0  0  0  0  0  0  0  0  0  0  0
    2.1917   -2.8042    0.0000 C   0  0  0  0  0  0  0  0  0  0  0  0
    0.7625   -2.8042    0.0000 N   0  0  0  0  0  0  0  0  0  0  0  0
    1.4792   -2.3917    0.0000 C   0  0  0  0  0  0  0  0  0  0  0  0
   -0.6625   -1.1542    0.0000 C   0  0  0  0  0  0  0  0  0  0  0  0
    0.0500   -1.5667    0.0000 C   0  0  0  0  0  0  0  0  0  0  0  0
    0.0500   -2.3917    0.0000 C   0  0  0  0  0  0  0  0  0  0  0  0
    1.4792   -1.5667    0.0000 C   0  0  0  0  0  0  0  0  0  0  0  0
    0.7625   -1.1542    0.0000 C   0  0  0  0  0  0  0  0  0  0  0  0
   -2.1125   -0.1042    0.0000 C   0  0  0  0  0  0  0  0  0  0  0  0
    0.2375    1.5958    0.0000 C   0  0  0  0  0  0  0  0  0  0  0  0
    3.6167   -2.8042    0.0000 C   0  0  0  0  0  0  0  0  0  0  0  0
    2.1917   -3.6292    0.0000 C   0  0  0  0  0  0  0  0  0  0  0  0
   -2.7250    0.4458    0.0000 C   0  0  0  0  0  0  0  0  0  0  0  0
    1.0542    1.5208    0.0000 C   0  0  0  0  0  0  0  0  0  0  0  0
   -3.5125    0.1833    0.0000 C   0  0  0  0  0  0  0  0  0  0  0  0
    1.5417    2.1833    0.0000 C   0  0  0  0  0  0  0  0  0  0  0  0
    2.9125   -4.0417    0.0000 C   0  0  0  0  0  0  0  0  0  0  0  0
    3.6250   -3.6292    0.0000 C   0  0  0  0  0  0  0  0  0  0  0  0
   -4.1333    0.7333    0.0000 C   0  0  0  0  0  0  0  0  0  0  0  0
    2.3542    2.0958    0.0000 C   0  0  0  0  0  0  0  0  0  0  0  0
  2  5  2  0
  3  1  1  0
  4 11  1  0
  5  1  1  0
  6  7  1  0
  7  4  1  0
  8 10  1  0
  9  3  2  0
 10  4  2  0
 11 12  1  0
 12 14  1  0
 13 17  2  0
 14 18  2  0
 15  1  1  0
 16 15  1  0
 17 16  1  0
 18 19  1  0
 19 16  2  0
 20  5  1  0
 21  9  1  0
 22 11  2  0
 23 12  2  0
 24 20  1  0
 25 21  1  0
 26 24  1  0
 27 25  1  0
 28 23  1  0
 29 28  2  0
 30 26  1  0
 31 27  1  0
  9  2  1  0
 13 14  1  0
 22 29  1  0
  8  6  2  0
M  END
>  <From>  (1) 
www.bindingDB.org

>  <BindingDB Reactant_set_id>  (1) 
50620771

>  <Ligand InChI>  (1) 
InChI=1S/C23H28N8/c1-3-5-11-21-25-22(12-6-4-2)31(28-21)16-17-13-14-20(24-15-17)18-9-7-8-10-19(18)23-26-29-30-27-23/h7-10,13-15H,3-6,11-12,16H2,1-2H3,(H,26,27,29,30)

>  <Ligand InChI Key>  (1) 
YONOBYIBNBCDSJ-UHFFFAOYSA-N

>  <BindingDB MonomerID>  (1) 
50049209

>  <BindingDB Ligand Name>  (1) 
5-(3,5-Dibutyl-[1,2,4]triazol-1-ylmethyl)-2-[2-(1H-tetrazol-5-yl)-phenyl]-pyridine::5-(3,5-Dibutyl-[1,2,4]triazol-1-ylmethyl)-2-[2-(2H-tetrazol-5-yl)-phenyl]-pyridine::CHEMBL315021::SC-52458

>  <Target Name>  (1) 
Type-1 angiotensin II receptor

>  <Target Source Organism According to Curator or DataSource>  (1) 
Homo sapiens

>  <Ki (nM)>  (1) 


>  <IC50 (nM)>  (1) 
 6.9

>  <Kd (nM)>  (1) 


>  <EC50 (nM)>  (1) 


>  <kon (M-1-s-1)>  (1) 


>  <koff (s-1)>  (1) 


>  <pH>  (1) 


>  <Temp C>  (1) 


>  <Curation/DataSource>  (1) 
ChEMBL

>  <Article DOI>  (1) 
10.1016/j.bmc.2010.10.043

>  <BindingDB Entry DOI>  (1) 
10.7270/Q2H70G3T

>  <PMID>  (1) 
21071232

>  <PubChem AID>  (1) 


>  <Patent Number>  (1) 


>  <Authors>  (1) 
Naik, P; Murumkar, P; Giridhar, R; Yadav, MR

>  <Institution>  (1) 
The M. S. University of Baroda

>  <Link to Ligand in BindingDB>  (1) 
http://www.bindingdb.org/bind/chemsearch/marvin/MolStructure.jsp?monomerid=50049209

>  <Link to Ligand-Target Pair in BindingDB>  (1) 
http://www.bindingdb.org/jsp/dbsearch/PrimarySearch_ki.jsp?energyterm=kJ/mole&tag=r21&monomerid=50049209&enzyme=Type-1+angiotensin+II+receptor&column=ki&startPg=0&Increment=50&submit=Search

>  <Ligand HET ID in PDB>  (1) 


>  <PDB ID(s) for Ligand-Target Complex>  (1) 


>  <PubChem CID of Ligand>  (1) 
132706

>  <PubChem SID of Ligand>  (1) 
103979563

>  <ChEBI ID of Ligand>  (1) 


>  <ChEMBL ID of Ligand>  (1) 
CHEMBL315021

>  <DrugBank ID of Ligand>  (1) 


>  <IUPHAR_GRAC ID of Ligand>  (1) 
6896

>  <KEGG ID of Ligand>  (1) 


>  <ZINC ID of Ligand>  (1) 
ZINC13900167

>  <Number of Protein Chains in Target (bigger than 1 implies a multichain complex)>  (1) 
1

>  <BindingDB Target Chain Sequence>  (1) 
MILNSSTEDGIKRIQDDCPKAGRHNYIFVMIPTLYSIIFVVGIFGNSLVVIVIYFYMKLKTVASVFLLNLALADLCFLLTLPLWAVYTAMEYRWPFGNYLCKIASASVSFNLYASVFLLTCLSIDRYLAIVHPMKSRLRRTMLVAKVTCIIIWLLAGLASLPAIIHRNVFFIENTNITVCAFHYESQNSTLPIGLGLTKNILGFLFPFLIILTSYTLIWKALKKAYEIQKNKPRNDDIFKIIMAIVLFFFFSWIPHQIFTFLDVLIQLGIIRDCRIADIVDTAMPITICIAYFNNCLNPLFYGFLGKKFKRYFLQLLKYIPPKAKSHSNLSTKMSTLSYRPSDNVSSSTKKPAPCFEVE

>  <PDB ID(s) of Target Chain>  (1) 
6DO1,6OS0,6OS1,6OS2

>  <UniProt (SwissProt) Recommended Name of Target Chain>  (1) 
Type-1 angiotensin II receptor

>  <UniProt (SwissProt) Entry Name of Target Chain>  (1) 
AGTR1_HUMAN

>  <UniProt (SwissProt) Primary ID of Target Chain>  (1) 
P30556

>  <UniProt (SwissProt) Secondary ID(s) of Target Chain>  (1) 
Q13725 Q8TBK4

>  <UniProt (SwissProt) Alternative ID(s) of Target Chain>  (1) 


>  <UniProt (TrEMBL) Submitted Name of Target Chain>  (1) 


>  <UniProt (TrEMBL) Entry Name of Target Chain>  (1) 


>  <UniProt (TrEMBL) Primary ID of Target Chain>  (1) 


>  <UniProt (TrEMBL) Secondary ID(s) of Target Chain>  (1) 


>  <UniProt (TrEMBL) Alternative ID(s) of Target Chain>  (1) 


$$$$
