
     RDKit          2D

 31 35  0  0  0  0  0  0  0  0999 V2000
    3.5108    0.0584    0.0000 C   0  0  0  0  0  0  0  0  0  0  0  0
    3.5191    0.8724    0.0000 N   0  0  0  0  0  0  0  0  0  0  0  0
    2.8053   -0.3507    0.0000 C   0  0  0  0  0  0  0  0  0  0  0  0
    4.2372   -0.3507    0.0000 N   0  0  0  0  0  0  0  0  0  0  0  0
    7.7939    0.8641    0.0000 C   0  0  0  0  0  0  0  0  0  0  0  0
    7.3764    2.1373    0.0000 N   0  0  0  0  0  0  0  0  0  0  0  0
    7.1259    1.3483    0.0000 N   0  0  0  0  0  0  0  0  0  0  0  0
    8.2071    2.1373    0.0000 N   0  0  0  0  0  0  0  0  0  0  0  0
    2.8095    1.2857    0.0000 C   0  0  0  0  0  0  0  0  0  0  0  0
    8.4576    1.3525    0.0000 N   0  0  0  0  0  0  0  0  0  0  0  0
    3.5191   -1.5947    0.0000 N   0  0  0  0  0  0  0  0  0  0  0  0
    2.8053   -1.1814    0.0000 C   0  0  0  0  0  0  0  0  0  0  0  0
    7.8022    0.0376    0.0000 C   0  0  0  0  0  0  0  0  0  0  0  0
    4.2372   -1.1814    0.0000 C   0  0  0  0  0  0  0  0  0  0  0  0
    7.0925   -0.3757    0.0000 C   0  0  0  0  0  0  0  0  0  0  0  0
    2.0956    0.0584    0.0000 C   0  0  0  0  0  0  0  0  0  0  0  0
    4.2330    1.2857    0.0000 C   0  0  0  0  0  0  0  0  0  0  0  0
    6.3745    0.0376    0.0000 C   0  0  0  0  0  0  0  0  0  0  0  0
    2.0956    0.8766    0.0000 C   0  0  0  0  0  0  0  0  0  0  0  0
    2.8095    2.1123    0.0000 O   0  0  0  0  0  0  0  0  0  0  0  0
    5.6523   -0.3674    0.0000 C   0  0  0  0  0  0  0  0  0  0  0  0
    6.3745    0.8724    0.0000 C   0  0  0  0  0  0  0  0  0  0  0  0
    4.9510    0.8724    0.0000 C   0  0  0  0  0  0  0  0  0  0  0  0
    4.9385    0.0459    0.0000 C   0  0  0  0  0  0  0  0  0  0  0  0
    5.6606    1.2857    0.0000 C   0  0  0  0  0  0  0  0  0  0  0  0
    8.5160   -0.3674    0.0000 C   0  0  0  0  0  0  0  0  0  0  0  0
    2.0831   -1.5947    0.0000 C   0  0  0  0  0  0  0  0  0  0  0  0
    7.0883   -1.2023    0.0000 C   0  0  0  0  0  0  0  0  0  0  0  0
    4.9510   -1.5947    0.0000 C   0  0  0  0  0  0  0  0  0  0  0  0
    7.8022   -1.6155    0.0000 C   0  0  0  0  0  0  0  0  0  0  0  0
    8.5202   -1.2023    0.0000 C   0  0  0  0  0  0  0  0  0  0  0  0
  2  1  1  0
  3  1  1  0
  4  1  2  0
  5 13  1  0
  6  7  1  0
  7  5  1  0
  8 10  1  0
  9  2  1  0
 10  5  2  0
 11 14  2  0
 12  3  2  0
 13 15  1  0
 14  4  1  0
 15 18  1  0
 16  3  1  0
 17  2  1  0
 18 22  2  0
 19 16  1  0
 20  9  2  0
 21 24  2  0
 22 25  1  0
 23 17  1  0
 24 23  1  0
 25 23  2  0
 26 13  2  0
 27 12  1  0
 28 15  2  0
 29 14  1  0
 30 28  1  0
 31 30  2  0
 11 12  1  0
 19  9  1  0
 18 21  1  0
 31 26  1  0
  6  8  2  0
M  END
>  <From>  (1) 
www.bindingDB.org

>  <BindingDB Reactant_set_id>  (1) 
50812179

>  <Ligand InChI>  (1) 
InChI=1S/C23H21N7O/c1-14-18-11-12-21(31)30(23(18)25-15(2)24-14)13-16-7-9-17(10-8-16)19-5-3-4-6-20(19)22-26-28-29-27-22/h3-10H,11-13H2,1-2H3,(H,26,27,28,29)

>  <Ligand InChI Key>  (1) 
ADXGNEYLLLSOAR-UHFFFAOYSA-N

>  <BindingDB MonomerID>  (1) 
50040439

>  <BindingDB Ligand Name>  (1) 
2,4-Dimethyl-8-[2'-(1H-tetrazol-5-yl)-biphenyl-4-ylmethyl]-5,8-dihydro-6H-pyrido[2,3-d]pyrimidin-7-one::2,4-Dimethyl-8-[2'-(2H-tetrazol-5-yl)-biphenyl-4-ylmethyl]-5,8-dihydro-6H-pyrido[2,3-d]pyrimidin-7-one::CHEMBL432162

>  <Target Name>  (1) 
Type-1 angiotensin II receptor

>  <Target Source Organism According to Curator or DataSource>  (1) 
Homo sapiens

>  <Ki (nM)>  (1) 


>  <IC50 (nM)>  (1) 
 32

>  <Kd (nM)>  (1) 


>  <EC50 (nM)>  (1) 


>  <kon (M-1-s-1)>  (1) 


>  <koff (s-1)>  (1) 


>  <pH>  (1) 


>  <Temp C>  (1) 


>  <Curation/DataSource>  (1) 
ChEMBL

>  <Article DOI>  (1) 
10.1021/jm0204237

>  <BindingDB Entry DOI>  (1) 
10.7270/Q2154HSP

>  <PMID>  (1) 
12773029

>  <PubChem AID>  (1) 


>  <Patent Number>  (1) 


>  <Authors>  (1) 
Schmidt, B; Schieffer, B

>  <Institution>  (1) 
Technische Universit&#163;t Darmstadt

>  <Link to Ligand in BindingDB>  (1) 
http://www.bindingdb.org/bind/chemsearch/marvin/MolStructure.jsp?monomerid=50040439

>  <Link to Ligand-Target Pair in BindingDB>  (1) 
http://www.bindingdb.org/jsp/dbsearch/PrimarySearch_ki.jsp?energyterm=kJ/mole&tag=r21&monomerid=50040439&enzyme=Type-1+angiotensin+II+receptor&column=ki&startPg=0&Increment=50&submit=Search

>  <Ligand HET ID in PDB>  (1) 


>  <PDB ID(s) for Ligand-Target Complex>  (1) 


>  <PubChem CID of Ligand>  (1) 
60919

>  <PubChem SID of Ligand>  (1) 
103972483

>  <ChEBI ID of Ligand>  (1) 


>  <ChEMBL ID of Ligand>  (1) 
CHEMBL432162

>  <DrugBank ID of Ligand>  (1) 


>  <IUPHAR_GRAC ID of Ligand>  (1) 
6898

>  <KEGG ID of Ligand>  (1) 


>  <ZINC ID of Ligand>  (1) 
ZINC13444037

>  <Number of Protein Chains in Target (bigger than 1 implies a multichain complex)>  (1) 
1

>  <BindingDB Target Chain Sequence>  (1) 
MILNSSTEDGIKRIQDDCPKAGRHNYIFVMIPTLYSIIFVVGIFGNSLVVIVIYFYMKLKTVASVFLLNLALADLCFLLTLPLWAVYTAMEYRWPFGNYLCKIASASVSFNLYASVFLLTCLSIDRYLAIVHPMKSRLRRTMLVAKVTCIIIWLLAGLASLPAIIHRNVFFIENTNITVCAFHYESQNSTLPIGLGLTKNILGFLFPFLIILTSYTLIWKALKKAYEIQKNKPRNDDIFKIIMAIVLFFFFSWIPHQIFTFLDVLIQLGIIRDCRIADIVDTAMPITICIAYFNNCLNPLFYGFLGKKFKRYFLQLLKYIPPKAKSHSNLSTKMSTLSYRPSDNVSSSTKKPAPCFEVE

>  <PDB ID(s) of Target Chain>  (1) 
6DO1,6OS0,6OS1,6OS2

>  <UniProt (SwissProt) Recommended Name of Target Chain>  (1) 
Type-1 angiotensin II receptor

>  <UniProt (SwissProt) Entry Name of Target Chain>  (1) 
AGTR1_HUMAN

>  <UniProt (SwissProt) Primary ID of Target Chain>  (1) 
P30556

>  <UniProt (SwissProt) Secondary ID(s) of Target Chain>  (1) 
Q13725 Q8TBK4

>  <UniProt (SwissProt) Alternative ID(s) of Target Chain>  (1) 


>  <UniProt (TrEMBL) Submitted Name of Target Chain>  (1) 


>  <UniProt (TrEMBL) Entry Name of Target Chain>  (1) 


>  <UniProt (TrEMBL) Primary ID of Target Chain>  (1) 


>  <UniProt (TrEMBL) Secondary ID(s) of Target Chain>  (1) 


>  <UniProt (TrEMBL) Alternative ID(s) of Target Chain>  (1) 


$$$$
