
     RDKit          2D

 33 38  0  0  0  0  0  0  0  0999 V2000
    4.7590   -2.5099    0.0000 C   0  0  0  0  0  0  0  0  0  0  0  0
    4.7612   -1.6866    0.0000 C   0  0  0  0  0  0  0  0  0  0  0  0
    5.4653   -2.9363    0.0000 C   0  0  0  0  0  0  0  0  0  0  0  0
    5.4829   -1.2919    0.0000 C   0  0  0  0  0  0  0  0  0  0  0  0
    5.4893   -0.4613    0.0000 C   0  0  0  0  0  0  0  0  0  0  0  0
    6.1938   -1.7109    0.0000 C   0  0  0  0  0  0  0  0  0  0  0  0
    6.2152   -0.0596    0.0000 C   0  0  0  0  0  0  0  0  0  0  0  0
    4.0331   -2.9117    0.0000 C   0  0  0  0  0  0  0  0  0  0  0  0
    4.0545   -1.2604    0.0000 C   0  0  0  0  0  0  0  0  0  0  0  0
    3.3222   -2.4928    0.0000 C   0  0  0  0  0  0  0  0  0  0  0  0
    3.3394   -1.6686    0.0000 C   0  0  0  0  0  0  0  0  0  0  0  0
    6.9219   -0.4856    0.0000 C   0  0  0  0  0  0  0  0  0  0  0  0
    6.9104   -1.3020    0.0000 C   0  0  0  0  0  0  0  0  0  0  0  0
    7.6833   -1.5653    0.0000 C   0  0  0  0  0  0  0  0  0  0  0  0
    8.1725   -0.9116    0.0000 C   0  0  0  0  0  0  0  0  0  0  0  0
    7.7027   -0.2439    0.0000 C   0  0  0  0  0  0  0  0  0  0  0  0
    7.9669    0.5377    0.0000 N   0  0  0  0  0  0  0  0  0  0  0  0
    7.9842    1.8685    0.0000 N   0  0  0  0  0  0  0  0  0  0  0  0
    8.7522    0.7849    0.0000 C   0  0  0  0  0  0  0  0  0  0  0  0
    7.4931    1.2100    0.0000 C   0  0  0  0  0  0  0  0  0  0  0  0
    8.7706    1.6019    0.0000 C   0  0  0  0  0  0  0  0  0  0  0  0
   10.1759    0.7610    0.0000 C   0  0  0  0  0  0  0  0  0  0  0  0
    9.4580    0.3576    0.0000 N   0  0  0  0  0  0  0  0  0  0  0  0
    9.4777    2.0115    0.0000 C   0  0  0  0  0  0  0  0  0  0  0  0
   10.1878    1.5915    0.0000 C   0  0  0  0  0  0  0  0  0  0  0  0
    6.6698    1.2177    0.0000 C   0  0  0  0  0  0  0  0  0  0  0  0
    9.4853    2.8349    0.0000 C   0  0  0  0  0  0  0  0  0  0  0  0
    6.2728    1.9463    0.0000 C   0  0  0  0  0  0  0  0  0  0  0  0
    5.4515   -3.7606    0.0000 N   0  0  0  0  0  0  0  0  0  0  0  0
    6.2307   -4.0323    0.0000 N   0  0  0  0  0  0  0  0  0  0  0  0
    6.7299   -3.3752    0.0000 N   0  0  0  0  0  0  0  0  0  0  0  0
    6.2593   -2.6975    0.0000 N   0  0  0  0  0  0  0  0  0  0  0  0
   10.8850    0.3391    0.0000 C   0  0  0  0  0  0  0  0  0  0  0  0
 16 15  1  0
 16 12  1  0
  5  7  2  0
  6 13  1  0
  7 12  1  0
  8  1  2  0
  9  2  2  0
 10 11  2  0
 11  9  1  0
  6  4  2  0
  8 10  1  0
 12 13  2  0
  1  2  1  0
 17 19  1  0
 18 21  1  0
 19 23  2  0
 20 17  1  0
 21 24  2  0
 23 22  1  0
 24 25  1  0
 25 22  2  0
 26 20  1  0
 27 24  1  0
 28 26  1  0
 19 21  1  0
 18 20  2  0
 16 17  1  6
 31 32  1  0
  2  4  1  0
 29 30  1  0
  3  1  1  0
  4  5  1  0
 13 14  1  0
  3 29  1  0
 30 31  2  0
 32  3  2  0
 14 15  1  0
 22 33  1  0
M  END
>  <From>  (1) 
www.bindingDB.org

>  <BindingDB Reactant_set_id>  (1) 
50647688

>  <Ligand InChI>  (1) 
InChI=1S/C26H25N7/c1-4-23-28-24-15(2)13-16(3)27-26(24)33(23)22-12-10-18-14-17(9-11-20(18)22)19-7-5-6-8-21(19)25-29-31-32-30-25/h5-9,11,13-14,22H,4,10,12H2,1-3H3,(H,29,30,31,32)/t22-/m1/s1

>  <Ligand InChI Key>  (1) 
PACFDFGGIPMOKL-JOCHJYFZSA-N

>  <BindingDB MonomerID>  (1) 
50347576

>  <BindingDB Ligand Name>  (1) 
CHEMBL1801713

>  <Target Name>  (1) 
Type-1 angiotensin II receptor

>  <Target Source Organism According to Curator or DataSource>  (1) 
Homo sapiens

>  <Ki (nM)>  (1) 


>  <IC50 (nM)>  (1) 
 661

>  <Kd (nM)>  (1) 


>  <EC50 (nM)>  (1) 


>  <kon (M-1-s-1)>  (1) 


>  <koff (s-1)>  (1) 


>  <pH>  (1) 


>  <Temp C>  (1) 


>  <Curation/DataSource>  (1) 
ChEMBL

>  <Article DOI>  (1) 
10.1021/jm200409s

>  <BindingDB Entry DOI>  (1) 
10.7270/Q2SB463J

>  <PMID>  (1) 
21557540

>  <PubChem AID>  (1) 


>  <Patent Number>  (1) 


>  <Authors>  (1) 
Casimiro-Garcia, A; Filzen, GF; Flynn, D; Bigge, CF; Chen, J; Davis, JA; Dudley, DA; Edmunds, JJ; Esmaeil, N; Geyer, A; Heemstra, RJ; Jalaie, M; Ohren, JF; Ostroski, R; Ellis, T; Schaum, RP; Stoner, C

>  <Institution>  (1) 
Pfizer Inc

>  <Link to Ligand in BindingDB>  (1) 
http://www.bindingdb.org/bind/chemsearch/marvin/MolStructure.jsp?monomerid=50347576

>  <Link to Ligand-Target Pair in BindingDB>  (1) 
http://www.bindingdb.org/jsp/dbsearch/PrimarySearch_ki.jsp?energyterm=kJ/mole&tag=r21&monomerid=50347576&enzyme=Type-1+angiotensin+II+receptor&column=ki&startPg=0&Increment=50&submit=Search

>  <Ligand HET ID in PDB>  (1) 


>  <PDB ID(s) for Ligand-Target Complex>  (1) 


>  <PubChem CID of Ligand>  (1) 
18654313

>  <PubChem SID of Ligand>  (1) 
136354262

>  <ChEBI ID of Ligand>  (1) 


>  <ChEMBL ID of Ligand>  (1) 
CHEMBL1801713

>  <DrugBank ID of Ligand>  (1) 


>  <IUPHAR_GRAC ID of Ligand>  (1) 


>  <KEGG ID of Ligand>  (1) 


>  <ZINC ID of Ligand>  (1) 
ZINC00837926

>  <Number of Protein Chains in Target (bigger than 1 implies a multichain complex)>  (1) 
1

>  <BindingDB Target Chain Sequence>  (1) 
MILNSSTEDGIKRIQDDCPKAGRHNYIFVMIPTLYSIIFVVGIFGNSLVVIVIYFYMKLKTVASVFLLNLALADLCFLLTLPLWAVYTAMEYRWPFGNYLCKIASASVSFNLYASVFLLTCLSIDRYLAIVHPMKSRLRRTMLVAKVTCIIIWLLAGLASLPAIIHRNVFFIENTNITVCAFHYESQNSTLPIGLGLTKNILGFLFPFLIILTSYTLIWKALKKAYEIQKNKPRNDDIFKIIMAIVLFFFFSWIPHQIFTFLDVLIQLGIIRDCRIADIVDTAMPITICIAYFNNCLNPLFYGFLGKKFKRYFLQLLKYIPPKAKSHSNLSTKMSTLSYRPSDNVSSSTKKPAPCFEVE

>  <PDB ID(s) of Target Chain>  (1) 
6DO1,6OS0,6OS1,6OS2

>  <UniProt (SwissProt) Recommended Name of Target Chain>  (1) 
Type-1 angiotensin II receptor

>  <UniProt (SwissProt) Entry Name of Target Chain>  (1) 
AGTR1_HUMAN

>  <UniProt (SwissProt) Primary ID of Target Chain>  (1) 
P30556

>  <UniProt (SwissProt) Secondary ID(s) of Target Chain>  (1) 
Q13725 Q8TBK4

>  <UniProt (SwissProt) Alternative ID(s) of Target Chain>  (1) 


>  <UniProt (TrEMBL) Submitted Name of Target Chain>  (1) 


>  <UniProt (TrEMBL) Entry Name of Target Chain>  (1) 


>  <UniProt (TrEMBL) Primary ID of Target Chain>  (1) 


>  <UniProt (TrEMBL) Secondary ID(s) of Target Chain>  (1) 


>  <UniProt (TrEMBL) Alternative ID(s) of Target Chain>  (1) 


$$$$
