
     RDKit          2D

 42 48  0  0  0  0  0  0  0  0999 V2000
    4.5750   -3.7625    0.0000 N   0  0  0  0  0  0  0  0  0  0  0  0
    3.8542   -4.1750    0.0000 C   0  0  0  0  0  0  0  0  0  0  0  0
    3.1417   -3.7542    0.0000 C   0  0  0  0  0  0  0  0  0  0  0  0
    0.9167   -4.9917    0.0000 N   0  0  0  0  0  0  0  0  0  0  0  0
    4.5750   -2.9292    0.0000 C   0  0  0  0  0  0  0  0  0  0  0  0
    3.8542   -2.5167    0.0000 N   0  0  0  0  0  0  0  0  0  0  0  0
    6.7042   -7.4625    0.0000 C   0  0  0  0  0  0  0  0  0  0  0  0
    7.6000   -6.4667    0.0000 N   0  0  0  0  0  0  0  0  0  0  0  0
    0.1167   -5.1667    0.0000 N   0  0  0  0  0  0  0  0  0  0  0  0
    6.7917   -6.6417    0.0000 N   0  0  0  0  0  0  0  0  0  0  0  0
    8.0125   -7.1792    0.0000 N   0  0  0  0  0  0  0  0  0  0  0  0
    1.0042   -4.1667    0.0000 C   0  0  0  0  0  0  0  0  0  0  0  0
    3.1417   -2.9292    0.0000 C   0  0  0  0  0  0  0  0  0  0  0  0
    7.4625   -7.7917    0.0000 N   0  0  0  0  0  0  0  0  0  0  0  0
    2.4292   -4.1750    0.0000 C   0  0  0  0  0  0  0  0  0  0  0  0
    5.9917   -7.8792    0.0000 C   0  0  0  0  0  0  0  0  0  0  0  0
    0.2542   -3.8417    0.0000 C   0  0  0  0  0  0  0  0  0  0  0  0
    1.7167   -3.7625    0.0000 C   0  0  0  0  0  0  0  0  0  0  0  0
    5.2792   -7.4667    0.0000 C   0  0  0  0  0  0  0  0  0  0  0  0
   -0.3000   -4.4417    0.0000 C   0  0  0  0  0  0  0  0  0  0  0  0
    5.2875   -4.1750    0.0000 C   0  0  0  0  0  0  0  0  0  0  0  0
    3.8542   -5.0000    0.0000 O   0  0  0  0  0  0  0  0  0  0  0  0
    5.2792   -6.6417    0.0000 C   0  0  0  0  0  0  0  0  0  0  0  0
    2.4292   -2.5167    0.0000 C   0  0  0  0  0  0  0  0  0  0  0  0
    1.7167   -2.9375    0.0000 C   0  0  0  0  0  0  0  0  0  0  0  0
    6.0000   -6.2292    0.0000 C   0  0  0  0  0  0  0  0  0  0  0  0
    4.5667   -6.2292    0.0000 C   0  0  0  0  0  0  0  0  0  0  0  0
    5.2875   -5.0000    0.0000 C   0  0  0  0  0  0  0  0  0  0  0  0
    5.2917   -2.5250    0.0000 C   0  0  0  0  0  0  0  0  0  0  0  0
   -0.2833   -5.8792    0.0000 C   0  0  0  0  0  0  0  0  0  0  0  0
    6.0000   -5.4042    0.0000 C   0  0  0  0  0  0  0  0  0  0  0  0
    4.5667   -5.4042    0.0000 C   0  0  0  0  0  0  0  0  0  0  0  0
    5.9917   -8.7042    0.0000 C   0  0  0  0  0  0  0  0  0  0  0  0
    4.5667   -7.8792    0.0000 C   0  0  0  0  0  0  0  0  0  0  0  0
   -1.1208   -4.4542    0.0000 C   0  0  0  0  0  0  0  0  0  0  0  0
    6.0042   -2.9375    0.0000 C   0  0  0  0  0  0  0  0  0  0  0  0
    6.7167   -2.5250    0.0000 C   0  0  0  0  0  0  0  0  0  0  0  0
   -1.1125   -5.8875    0.0000 C   0  0  0  0  0  0  0  0  0  0  0  0
    5.2792   -9.1167    0.0000 C   0  0  0  0  0  0  0  0  0  0  0  0
    4.5667   -8.7042    0.0000 C   0  0  0  0  0  0  0  0  0  0  0  0
    7.4292   -2.9417    0.0000 C   0  0  0  0  0  0  0  0  0  0  0  0
   -1.5333   -5.1750    0.0000 C   0  0  0  0  0  0  0  0  0  0  0  0
  2  1  1  0
  3  2  1  0
  4 12  2  0
  5  1  1  0
  6  5  2  0
  7 16  1  0
  8 10  1  0
  9  4  1  0
 10  7  1  0
 11 14  1  0
 12 18  1  0
 13  6  1  0
 14  7  2  0
 15  3  2  0
 16 19  1  0
 17 12  1  0
 18 15  1  0
 19 23  1  0
 20 17  1  0
 21  1  1  0
 22  2  2  0
 23 27  2  0
 24 13  2  0
 25 24  1  0
 26 31  2  0
 27 32  1  0
 28 21  1  0
 29  5  1  0
 30  9  1  0
 31 28  1  0
 32 28  2  0
 33 16  2  0
 34 19  2  0
 35 20  1  0
 36 29  1  0
 37 36  1  0
 38 30  1  0
 39 40  2  0
 40 34  1  0
 41 37  1  0
 42 35  1  0
 13  3  1  0
 26 23  1  0
 25 18  2  0
  9 20  1  0
 39 33  1  0
 42 38  1  0
 11  8  2  0
M  END
>  <From>  (1) 
www.bindingDB.org

>  <BindingDB Reactant_set_id>  (1) 
50468491

>  <Ligand InChI>  (1) 
InChI=1S/C33H34N8O/c1-2-3-11-31-34-29-17-16-24(30-20-25-8-6-7-18-41(25)37-30)19-28(29)33(42)40(31)21-22-12-14-23(15-13-22)26-9-4-5-10-27(26)32-35-38-39-36-32/h4-5,9-10,12-17,19,25H,2-3,6-8,11,18,20-21H2,1H3,(H,35,36,38,39)

>  <Ligand InChI Key>  (1) 
KWMOYHJLSVDONG-UHFFFAOYSA-N

>  <BindingDB MonomerID>  (1) 
50282892

>  <BindingDB Ligand Name>  (1) 
2-Butyl-6-(3,3a,4,5,6,7-hexahydro-pyrazolo[1,5-a]pyridin-2-yl)-3-[2'-(1H-tetrazol-5-yl)-biphenyl-4-ylmethyl]-3H-quinazolin-4-one::CHEMBL52700

>  <Target Name>  (1) 
Type-1 angiotensin II receptor

>  <Target Source Organism According to Curator or DataSource>  (1) 
Bos taurus

>  <Ki (nM)>  (1) 


>  <IC50 (nM)>  (1) 
 56

>  <Kd (nM)>  (1) 


>  <EC50 (nM)>  (1) 


>  <kon (M-1-s-1)>  (1) 


>  <koff (s-1)>  (1) 


>  <pH>  (1) 


>  <Temp C>  (1) 


>  <Curation/DataSource>  (1) 
ChEMBL

>  <Article DOI>  (1) 
10.1016/S0960-894X(01)80377-2

>  <BindingDB Entry DOI>  (1) 
10.7270/Q21V5DXH

>  <PMID>  (1) 


>  <PubChem AID>  (1) 


>  <Patent Number>  (1) 


>  <Authors>  (1) 
Levin, JI; Venkatesan, AM; Chan, PS; Bailey, TK; Vice, G; Coupet, J

>  <Institution>  (1) 
TBA

>  <Link to Ligand in BindingDB>  (1) 
http://www.bindingdb.org/bind/chemsearch/marvin/MolStructure.jsp?monomerid=50282892

>  <Link to Ligand-Target Pair in BindingDB>  (1) 
http://www.bindingdb.org/jsp/dbsearch/PrimarySearch_ki.jsp?energyterm=kJ/mole&tag=r21&monomerid=50282892&enzyme=Type-1+angiotensin+II+receptor&column=ki&startPg=0&Increment=50&submit=Search

>  <Ligand HET ID in PDB>  (1) 


>  <PDB ID(s) for Ligand-Target Complex>  (1) 


>  <PubChem CID of Ligand>  (1) 
18942290

>  <PubChem SID of Ligand>  (1) 
104124566

>  <ChEBI ID of Ligand>  (1) 


>  <ChEMBL ID of Ligand>  (1) 
CHEMBL52700

>  <DrugBank ID of Ligand>  (1) 


>  <IUPHAR_GRAC ID of Ligand>  (1) 


>  <KEGG ID of Ligand>  (1) 


>  <ZINC ID of Ligand>  (1) 
ZINC14278681

>  <Number of Protein Chains in Target (bigger than 1 implies a multichain complex)>  (1) 
1

>  <BindingDB Target Chain Sequence>  (1) 
MILNSSTEDGIKRIQDDCPKAGRHNYIFIMIPTLYSIIFVVGIFGNSLVVIVIYFYMKLKTVASVFLLNLALADLCFLLTLPLWAVYTAMEYRWPFGNYLCKIASASVSFNLYASVFLLTCLSIDRYLAIVHPMKSRLRRTMLVAKVTCIIIWLLAGLASLPTIIHRNVFFIENTNITVCAFHYESQNSTLPVGLGLTKNILGFLFPFLIILTSYTLIWKTLKKAYEIQKNKPRKDDIFKIILAIVLFFFFSWVPHQIFTFMDVLIQLGLIRDCKIEDIVDTAMPITICLAYFNNCLNPLFYGFLGKKFKKYFLQLLKYIPPKAKSHSNLSTKMSTLSYRPSENGNSSTKKPAPCIEVE

>  <PDB ID(s) of Target Chain>  (1) 


>  <UniProt (SwissProt) Recommended Name of Target Chain>  (1) 
Type-1 angiotensin II receptor

>  <UniProt (SwissProt) Entry Name of Target Chain>  (1) 
AGTR1_BOVIN

>  <UniProt (SwissProt) Primary ID of Target Chain>  (1) 
P25104

>  <UniProt (SwissProt) Secondary ID(s) of Target Chain>  (1) 


>  <UniProt (SwissProt) Alternative ID(s) of Target Chain>  (1) 


>  <UniProt (TrEMBL) Submitted Name of Target Chain>  (1) 


>  <UniProt (TrEMBL) Entry Name of Target Chain>  (1) 


>  <UniProt (TrEMBL) Primary ID of Target Chain>  (1) 


>  <UniProt (TrEMBL) Secondary ID(s) of Target Chain>  (1) 


>  <UniProt (TrEMBL) Alternative ID(s) of Target Chain>  (1) 


$$$$
