
     RDKit          2D

 42 46  0  0  0  0  0  0  0  0999 V2000
   25.9444   -2.3541    0.0000 C   0  0  0  0  0  0  0  0  0  0  0  0
   25.9432   -3.1815    0.0000 C   0  0  0  0  0  0  0  0  0  0  0  0
   26.6581   -3.5944    0.0000 C   0  0  0  0  0  0  0  0  0  0  0  0
   26.6563   -1.9414    0.0000 C   0  0  0  0  0  0  0  0  0  0  0  0
   27.3716   -2.3505    0.0000 C   0  0  0  0  0  0  0  0  0  0  0  0
   27.3765   -3.1769    0.0000 C   0  0  0  0  0  0  0  0  0  0  0  0
   28.1640   -3.4278    0.0000 N   0  0  0  0  0  0  0  0  0  0  0  0
   28.6459   -2.7563    0.0000 C   0  0  0  0  0  0  0  0  0  0  0  0
   28.1561   -2.0906    0.0000 N   0  0  0  0  0  0  0  0  0  0  0  0
   29.4709   -2.7514    0.0000 C   0  0  0  0  0  0  0  0  0  0  0  0
   29.8792   -2.0345    0.0000 C   0  0  0  0  0  0  0  0  0  0  0  0
   30.7041   -2.0297    0.0000 C   0  0  0  0  0  0  0  0  0  0  0  0
   28.4235   -4.2109    0.0000 C   0  0  0  0  0  0  0  0  0  0  0  0
   29.2458   -4.2083    0.0000 C   0  0  0  0  0  0  0  0  0  0  0  0
   29.6574   -4.9216    0.0000 C   0  0  0  0  0  0  0  0  0  0  0  0
   30.4790   -4.9194    0.0000 C   0  0  0  0  0  0  0  0  0  0  0  0
   30.8888   -4.2054    0.0000 C   0  0  0  0  0  0  0  0  0  0  0  0
   30.4710   -3.4921    0.0000 C   0  0  0  0  0  0  0  0  0  0  0  0
   29.6507   -3.4978    0.0000 C   0  0  0  0  0  0  0  0  0  0  0  0
   31.7106   -4.2016    0.0000 C   0  0  0  0  0  0  0  0  0  0  0  0
   32.1256   -4.9158    0.0000 C   0  0  0  0  0  0  0  0  0  0  0  0
   32.9498   -4.9125    0.0000 C   0  0  0  0  0  0  0  0  0  0  0  0
   33.3600   -4.1957    0.0000 C   0  0  0  0  0  0  0  0  0  0  0  0
   32.9399   -3.4807    0.0000 C   0  0  0  0  0  0  0  0  0  0  0  0
   32.1170   -3.4875    0.0000 C   0  0  0  0  0  0  0  0  0  0  0  0
   31.6973   -2.7752    0.0000 C   0  0  0  0  0  0  0  0  0  0  0  0
   32.1047   -2.0578    0.0000 O   0  0  0  0  0  0  0  0  0  0  0  0
   30.8723   -2.7812    0.0000 O   0  0  0  0  0  0  0  0  0  0  0  0
   26.6538   -1.1164    0.0000 C   0  0  0  0  0  0  0  0  0  0  0  0
   25.2284   -3.5934    0.0000 C   0  0  0  0  0  0  0  0  0  0  0  0
   24.5143   -3.1804    0.0000 N   0  0  0  0  0  0  0  0  0  0  0  0
   25.2278   -4.4184    0.0000 O   0  0  0  0  0  0  0  0  0  0  0  0
   23.7995   -3.5923    0.0000 C   0  0  0  0  0  0  0  0  0  0  0  0
   23.0854   -3.1792    0.0000 C   0  0  0  0  0  0  0  0  0  0  0  0
   22.3706   -3.5912    0.0000 C   0  0  0  0  0  0  0  0  0  0  0  0
   21.6599   -3.1772    0.0000 C   0  0  0  0  0  0  0  0  0  0  0  0
   20.9456   -3.5885    0.0000 C   0  0  0  0  0  0  0  0  0  0  0  0
   20.9445   -4.4144    0.0000 C   0  0  0  0  0  0  0  0  0  0  0  0
   21.6637   -4.8273    0.0000 C   0  0  0  0  0  0  0  0  0  0  0  0
   22.3750   -4.4136    0.0000 C   0  0  0  0  0  0  0  0  0  0  0  0
   21.6659   -5.6523    0.0000 O   0  0  0  0  0  0  0  0  0  0  0  0
   20.9526   -6.0667    0.0000 C   0  0  0  0  0  0  0  0  0  0  0  0
  4  1  2  0
 20 21  2  0
  8 10  1  0
 21 22  1  0
  5  6  2  0
 22 23  2  0
 10 11  1  0
 23 24  1  0
 24 25  2  0
 25 20  1  0
 17 20  1  0
 11 12  1  0
  2  3  2  0
  7 13  1  0
 26 27  1  0
 26 28  2  0
 25 26  1  0
  3  6  1  0
  4 29  1  0
 13 14  1  0
  2 30  1  0
  1  2  1  0
 30 31  1  0
 14 15  2  0
 30 32  2  0
  5  4  1  0
 31 33  1  0
 15 16  1  0
 33 34  1  0
  6  7  1  0
 34 35  1  0
 16 17  2  0
 35 36  2  0
  7  8  1  0
 36 37  1  0
 17 18  1  0
 37 38  2  0
  8  9  2  0
 38 39  1  0
 18 19  2  0
 39 40  2  0
 40 35  1  0
 19 14  1  0
 39 41  1  0
  9  5  1  0
 41 42  1  0
M  END
>  <From>  (1) 
www.bindingDB.org

>  <BindingDB Reactant_set_id>  (1) 
50716816

>  <Ligand InChI>  (1) 
InChI=1S/C35H35N3O4/c1-4-8-32-37-33-23(2)19-27(34(39)36-18-17-24-9-7-10-28(20-24)42-3)21-31(33)38(32)22-25-13-15-26(16-14-25)29-11-5-6-12-30(29)35(40)41/h5-7,9-16,19-21H,4,8,17-18,22H2,1-3H3,(H,36,39)(H,40,41)

>  <Ligand InChI Key>  (1) 
NCAWYFSYLMNGPT-UHFFFAOYSA-N

>  <BindingDB MonomerID>  (1) 
50363830

>  <BindingDB Ligand Name>  (1) 
CHEMBL1945007

>  <Target Name>  (1) 
Type-1 angiotensin II receptor

>  <Target Source Organism According to Curator or DataSource>  (1) 
Homo sapiens

>  <Ki (nM)>  (1) 


>  <IC50 (nM)>  (1) 
 30.8

>  <Kd (nM)>  (1) 


>  <EC50 (nM)>  (1) 


>  <kon (M-1-s-1)>  (1) 


>  <koff (s-1)>  (1) 


>  <pH>  (1) 


>  <Temp C>  (1) 


>  <Curation/DataSource>  (1) 
ChEMBL

>  <Article DOI>  (1) 
10.1016/j.ejmech.2012.01.009

>  <BindingDB Entry DOI>  (1) 
10.7270/Q29K4BPW

>  <PMID>  (1) 
22309912

>  <PubChem AID>  (1) 


>  <Patent Number>  (1) 


>  <Authors>  (1) 
Wang, JL; Zhang, J; Zhou, ZM; Li, ZH; Xue, WZ; Xu, D; Hao, LP; Han, XF; Fei, F; Liu, T; Liang, AH

>  <Institution>  (1) 
Beijing Institute of Technology

>  <Link to Ligand in BindingDB>  (1) 
http://www.bindingdb.org/bind/chemsearch/marvin/MolStructure.jsp?monomerid=50363830

>  <Link to Ligand-Target Pair in BindingDB>  (1) 
http://www.bindingdb.org/jsp/dbsearch/PrimarySearch_ki.jsp?energyterm=kJ/mole&tag=r21&monomerid=50363830&enzyme=Type-1+angiotensin+II+receptor&column=ki&startPg=0&Increment=50&submit=Search

>  <Ligand HET ID in PDB>  (1) 


>  <PDB ID(s) for Ligand-Target Complex>  (1) 


>  <PubChem CID of Ligand>  (1) 
57380416

>  <PubChem SID of Ligand>  (1) 
136967892

>  <ChEBI ID of Ligand>  (1) 


>  <ChEMBL ID of Ligand>  (1) 
CHEMBL1945007

>  <DrugBank ID of Ligand>  (1) 


>  <IUPHAR_GRAC ID of Ligand>  (1) 


>  <KEGG ID of Ligand>  (1) 


>  <ZINC ID of Ligand>  (1) 
ZINC73200061

>  <Number of Protein Chains in Target (bigger than 1 implies a multichain complex)>  (1) 
1

>  <BindingDB Target Chain Sequence>  (1) 
MILNSSTEDGIKRIQDDCPKAGRHNYIFVMIPTLYSIIFVVGIFGNSLVVIVIYFYMKLKTVASVFLLNLALADLCFLLTLPLWAVYTAMEYRWPFGNYLCKIASASVSFNLYASVFLLTCLSIDRYLAIVHPMKSRLRRTMLVAKVTCIIIWLLAGLASLPAIIHRNVFFIENTNITVCAFHYESQNSTLPIGLGLTKNILGFLFPFLIILTSYTLIWKALKKAYEIQKNKPRNDDIFKIIMAIVLFFFFSWIPHQIFTFLDVLIQLGIIRDCRIADIVDTAMPITICIAYFNNCLNPLFYGFLGKKFKRYFLQLLKYIPPKAKSHSNLSTKMSTLSYRPSDNVSSSTKKPAPCFEVE

>  <PDB ID(s) of Target Chain>  (1) 
6DO1,6OS0,6OS1,6OS2

>  <UniProt (SwissProt) Recommended Name of Target Chain>  (1) 
Type-1 angiotensin II receptor

>  <UniProt (SwissProt) Entry Name of Target Chain>  (1) 
AGTR1_HUMAN

>  <UniProt (SwissProt) Primary ID of Target Chain>  (1) 
P30556

>  <UniProt (SwissProt) Secondary ID(s) of Target Chain>  (1) 
Q13725 Q8TBK4

>  <UniProt (SwissProt) Alternative ID(s) of Target Chain>  (1) 


>  <UniProt (TrEMBL) Submitted Name of Target Chain>  (1) 


>  <UniProt (TrEMBL) Entry Name of Target Chain>  (1) 


>  <UniProt (TrEMBL) Primary ID of Target Chain>  (1) 


>  <UniProt (TrEMBL) Secondary ID(s) of Target Chain>  (1) 


>  <UniProt (TrEMBL) Alternative ID(s) of Target Chain>  (1) 


$$$$
