
     RDKit          2D

 33 37  0  0  0  0  0  0  0  0999 V2000
    7.3793   -6.5039    0.0000 C   0  0  0  0  0  0  0  0  0  0  0  0
    7.4652   -5.1295    0.0000 N   0  0  0  0  0  0  0  0  0  0  0  0
    7.0725   -5.7349    0.0000 N   0  0  0  0  0  0  0  0  0  0  0  0
    8.2751   -5.5099    0.0000 N   0  0  0  0  0  0  0  0  0  0  0  0
    4.4423   -2.4420    0.0000 C   0  0  0  0  0  0  0  0  0  0  0  0
    8.1892   -6.3321    0.0000 N   0  0  0  0  0  0  0  0  0  0  0  0
    5.1663   -2.0289    0.0000 C   0  0  0  0  0  0  0  0  0  0  0  0
    4.4423   -0.7895    0.0000 N   0  0  0  0  0  0  0  0  0  0  0  0
    5.1663   -1.2026    0.0000 C   0  0  0  0  0  0  0  0  0  0  0  0
    6.7984   -7.0848    0.0000 C   0  0  0  0  0  0  0  0  0  0  0  0
    6.0049   -6.8720    0.0000 C   0  0  0  0  0  0  0  0  0  0  0  0
    5.8699   -3.6323    0.0000 N   0  0  0  0  0  0  0  0  0  0  0  0
    3.7346   -2.0289    0.0000 C   0  0  0  0  0  0  0  0  0  0  0  0
    5.8699   -2.9738    0.0000 C   0  0  0  0  0  0  0  0  0  0  0  0
    3.7346   -1.2026    0.0000 C   0  0  0  0  0  0  0  0  0  0  0  0
    4.4423   -3.2683    0.0000 O   0  0  0  0  0  0  0  0  0  0  0  0
    5.7840   -6.0785    0.0000 C   0  0  0  0  0  0  0  0  0  0  0  0
    5.8699   -2.4420    0.0000 C   0  0  0  0  0  0  0  0  0  0  0  0
    4.9945   -5.8535    0.0000 C   0  0  0  0  0  0  0  0  0  0  0  0
    6.3730   -5.4895    0.0000 C   0  0  0  0  0  0  0  0  0  0  0  0
    5.1663   -3.6814    0.0000 C   0  0  0  0  0  0  0  0  0  0  0  0
    5.3749   -4.4832    0.0000 C   0  0  0  0  0  0  0  0  0  0  0  0
    4.7859   -5.0600    0.0000 C   0  0  0  0  0  0  0  0  0  0  0  0
    6.1644   -4.7000    0.0000 C   0  0  0  0  0  0  0  0  0  0  0  0
    5.8821   -0.7895    0.0000 C   0  0  0  0  0  0  0  0  0  0  0  0
    7.0111   -7.8824    0.0000 C   0  0  0  0  0  0  0  0  0  0  0  0
    5.4158   -7.4529    0.0000 C   0  0  0  0  0  0  0  0  0  0  0  0
    6.5939   -1.2149    0.0000 C   0  0  0  0  0  0  0  0  0  0  0  0
    6.5898   -2.0412    0.0000 C   0  0  0  0  0  0  0  0  0  0  0  0
    3.0229   -0.7895    0.0000 C   0  0  0  0  0  0  0  0  0  0  0  0
    3.0229    0.0450    0.0000 C   0  0  0  0  0  0  0  0  0  0  0  0
    5.6244   -8.2505    0.0000 C   0  0  0  0  0  0  0  0  0  0  0  0
    6.4221   -8.4714    0.0000 C   0  0  0  0  0  0  0  0  0  0  0  0
  2  3  1  0
  3  1  1  0
  4  6  1  0
  5 16  1  0
  6  1  2  0
  7  5  1  0
  8 15  2  0
  9  7  2  0
 10  1  1  0
 11 10  1  0
 12 14  3  0
 13  5  2  0
 14 18  1  0
 15 13  1  0
 16 21  1  0
 17 11  1  0
 18  7  1  0
 19 17  2  0
 20 17  1  0
 21 22  1  0
 22 24  1  0
 23 19  1  0
 24 20  2  0
 25  9  1  0
 26 10  2  0
 27 11  2  0
 28 29  1  0
 29 18  2  0
 30 15  1  0
 31 30  1  0
 32 33  2  0
 33 26  1  0
  2  4  2  0
 32 27  1  0
 23 22  2  0
  8  9  1  0
 25 28  2  0
M  END
>  <From>  (1) 
www.bindingDB.org

>  <BindingDB Reactant_set_id>  (1) 
50005383

>  <Ligand InChI>  (1) 
InChI=1S/C26H20N6O/c1-2-20-14-24(25-19(15-27)6-5-9-23(25)28-20)33-16-17-10-12-18(13-11-17)21-7-3-4-8-22(21)26-29-31-32-30-26/h3-14H,2,16H2,1H3,(H,29,30,31,32)

>  <Ligand InChI Key>  (1) 
GTKWUYYSYAHRHC-UHFFFAOYSA-N

>  <BindingDB MonomerID>  (1) 
50003376

>  <BindingDB Ligand Name>  (1) 
2-Ethyl-4-[2'-(1H-tetrazol-5-yl)-biphenyl-4-ylmethoxy]-quinoline-5-carbonitrile::CHEMBL334431

>  <Target Name>  (1) 
Type-1 angiotensin II receptor

>  <Target Source Organism According to Curator or DataSource>  (1) 
Cavia porcellus

>  <Ki (nM)>  (1) 


>  <IC50 (nM)>  (1) 
 60

>  <Kd (nM)>  (1) 


>  <EC50 (nM)>  (1) 


>  <kon (M-1-s-1)>  (1) 


>  <koff (s-1)>  (1) 


>  <pH>  (1) 


>  <Temp C>  (1) 


>  <Curation/DataSource>  (1) 
ChEMBL

>  <Article DOI>  (1) 
10.1021/jm00100a007

>  <BindingDB Entry DOI>  (1) 
10.7270/Q2G44P8Q

>  <PMID>  (1) 
1433210

>  <PubChem AID>  (1) 


>  <Patent Number>  (1) 


>  <Authors>  (1) 
Bradbury, RH; Allott, CP; Dennis, M; Fisher, E; Major, JS; Masek, BB; Oldham, AA; Pearce, RJ; Rankine, N; Revill, JM

>  <Institution>  (1) 
ICI Pharmaceuticals Group

>  <Link to Ligand in BindingDB>  (1) 
http://www.bindingdb.org/bind/chemsearch/marvin/MolStructure.jsp?monomerid=50003376

>  <Link to Ligand-Target Pair in BindingDB>  (1) 
http://www.bindingdb.org/jsp/dbsearch/PrimarySearch_ki.jsp?energyterm=kJ/mole&tag=r21&monomerid=50003376&enzyme=Type-1+angiotensin+II+receptor&column=ki&startPg=0&Increment=50&submit=Search

>  <Ligand HET ID in PDB>  (1) 


>  <PDB ID(s) for Ligand-Target Complex>  (1) 


>  <PubChem CID of Ligand>  (1) 
9982103

>  <PubChem SID of Ligand>  (1) 
103917349

>  <ChEBI ID of Ligand>  (1) 


>  <ChEMBL ID of Ligand>  (1) 
CHEMBL334431

>  <DrugBank ID of Ligand>  (1) 


>  <IUPHAR_GRAC ID of Ligand>  (1) 


>  <KEGG ID of Ligand>  (1) 


>  <ZINC ID of Ligand>  (1) 
ZINC13728663

>  <Number of Protein Chains in Target (bigger than 1 implies a multichain complex)>  (1) 
1

>  <BindingDB Target Chain Sequence>  (1) 
MILNSSTEDGIKRIQDDCPKAGRHSYIFVMIPTLYSIIFVVGIFGNSLVVIVIYFYMKLKTVASVFLLNLALADICFLLTLPLWAVYTAMEYRWPFGNYLCKIASASVSFNLYASVFLLTCLSIDRYLAIVHPMKSRLRRTMLVAKVTCVIIWLMAGLASLPAVIHRNVFFIENTNITVCAFHYESQNSTLPIGLGLTKNILGFMFPFLIILTSYTLIWKALKKAYEIQKNKPRNDDIFKIIMAIVLFFFFSWVPHQIFTFLDVLIQLGIIHDCKISDIVDTAMPITICIAYFNNCLNPLFYGFLGKKFKKYFLQLLKYIPPKAKSHSTLSTKMSTLSYRPSDNVSSSAKKPVQCFEVE

>  <PDB ID(s) of Target Chain>  (1) 
4ZUD

>  <UniProt (SwissProt) Recommended Name of Target Chain>  (1) 
Type-1 angiotensin II receptor

>  <UniProt (SwissProt) Entry Name of Target Chain>  (1) 
AGTR1_CAVPO

>  <UniProt (SwissProt) Primary ID of Target Chain>  (1) 
Q9WV26

>  <UniProt (SwissProt) Secondary ID(s) of Target Chain>  (1) 


>  <UniProt (SwissProt) Alternative ID(s) of Target Chain>  (1) 


>  <UniProt (TrEMBL) Submitted Name of Target Chain>  (1) 


>  <UniProt (TrEMBL) Entry Name of Target Chain>  (1) 


>  <UniProt (TrEMBL) Primary ID of Target Chain>  (1) 


>  <UniProt (TrEMBL) Secondary ID(s) of Target Chain>  (1) 


>  <UniProt (TrEMBL) Alternative ID(s) of Target Chain>  (1) 


$$$$
