
     RDKit          2D

 37 41  0  0  0  0  0  0  0  0999 V2000
    2.7211   -1.2088    0.0000 N   0  0  0  0  0  0  0  0  0  0  0  0
    3.3856   -0.7276    0.0000 C   0  0  0  0  0  0  0  0  0  0  0  0
    3.1278    0.0630    0.0000 N   0  0  0  0  0  0  0  0  0  0  0  0
    2.3029    0.0630    0.0000 N   0  0  0  0  0  0  0  0  0  0  0  0
    2.0509   -0.7276    0.0000 C   0  0  0  0  0  0  0  0  0  0  0  0
    6.2786   -2.4462    0.0000 C   0  0  0  0  0  0  0  0  0  0  0  0
    5.8662   -1.1858    0.0000 N   0  0  0  0  0  0  0  0  0  0  0  0
    5.6084   -1.9650    0.0000 N   0  0  0  0  0  0  0  0  0  0  0  0
    6.6911   -1.1744    0.0000 N   0  0  0  0  0  0  0  0  0  0  0  0
    6.9489   -1.9650    0.0000 N   0  0  0  0  0  0  0  0  0  0  0  0
    3.6148    0.7332    0.0000 C   0  0  0  0  0  0  0  0  0  0  0  0
    6.2900   -3.2711    0.0000 C   0  0  0  0  0  0  0  0  0  0  0  0
    5.5740   -3.6835    0.0000 C   0  0  0  0  0  0  0  0  0  0  0  0
    3.2711    1.4722    0.0000 C   0  0  0  0  0  0  0  0  0  0  0  0
    2.7211   -2.0337    0.0000 C   0  0  0  0  0  0  0  0  0  0  0  0
    4.1648   -0.9796    0.0000 O   0  0  0  0  0  0  0  0  0  0  0  0
    4.8636   -3.2711    0.0000 C   0  0  0  0  0  0  0  0  0  0  0  0
    2.4462    1.5581    0.0000 O   0  0  0  0  0  0  0  0  0  0  0  0
    3.7523    2.1482    0.0000 C   0  0  0  0  0  0  0  0  0  0  0  0
    4.8694   -2.4462    0.0000 C   0  0  0  0  0  0  0  0  0  0  0  0
    4.1590   -3.6835    0.0000 C   0  0  0  0  0  0  0  0  0  0  0  0
    3.4372   -2.4462    0.0000 C   0  0  0  0  0  0  0  0  0  0  0  0
    1.2718   -0.9854    0.0000 C   0  0  0  0  0  0  0  0  0  0  0  0
    4.1476   -2.0337    0.0000 C   0  0  0  0  0  0  0  0  0  0  0  0
    3.4429   -3.2711    0.0000 C   0  0  0  0  0  0  0  0  0  0  0  0
    7.0004   -3.6835    0.0000 C   0  0  0  0  0  0  0  0  0  0  0  0
    5.5740   -4.5085    0.0000 C   0  0  0  0  0  0  0  0  0  0  0  0
    4.5714    2.0623    0.0000 C   0  0  0  0  0  0  0  0  0  0  0  0
    3.4086    2.8986    0.0000 C   0  0  0  0  0  0  0  0  0  0  0  0
    0.6531   -0.4354    0.0000 C   0  0  0  0  0  0  0  0  0  0  0  0
   -0.1317   -0.6932    0.0000 C   0  0  0  0  0  0  0  0  0  0  0  0
    7.0004   -4.5085    0.0000 C   0  0  0  0  0  0  0  0  0  0  0  0
    6.2900   -4.9209    0.0000 C   0  0  0  0  0  0  0  0  0  0  0  0
   -0.7504   -0.1433    0.0000 C   0  0  0  0  0  0  0  0  0  0  0  0
    3.8840    3.5689    0.0000 C   0  0  0  0  0  0  0  0  0  0  0  0
    5.0526    2.7326    0.0000 C   0  0  0  0  0  0  0  0  0  0  0  0
    4.7089    3.4887    0.0000 C   0  0  0  0  0  0  0  0  0  0  0  0
  2  1  1  0
  3  2  1  0
  4  5  2  0
  5  1  1  0
  6 12  1  0
  7  8  1  0
  8  6  2  0
  9 10  1  0
 10  6  1  0
 11  3  1  0
 12 13  1  0
 13 17  1  0
 14 11  1  0
 15  1  1  0
 16  2  2  0
 17 21  2  0
 18 14  2  0
 19 14  1  0
 20 24  2  0
 21 25  1  0
 22 15  1  0
 23  5  1  0
 24 22  1  0
 25 22  2  0
 26 12  2  0
 27 13  2  0
 28 19  2  0
 29 19  1  0
 30 23  1  0
 31 30  1  0
 32 33  2  0
 33 27  1  0
 34 31  1  0
 35 29  2  0
 36 28  1  0
 37 35  1  0
  3  4  1  0
 17 20  1  0
 36 37  2  0
 32 26  1  0
  9  7  2  0
M  END
>  <From>  (1) 
www.bindingDB.org

>  <BindingDB Reactant_set_id>  (1) 
50071162

>  <Ligand InChI>  (1) 
InChI=1S/C28H27N7O2/c1-2-3-13-26-31-35(19-25(36)22-9-5-4-6-10-22)28(37)34(26)18-20-14-16-21(17-15-20)23-11-7-8-12-24(23)27-29-32-33-30-27/h4-12,14-17H,2-3,13,18-19H2,1H3,(H,29,30,32,33)

>  <Ligand InChI Key>  (1) 
SLLKEOIZGYGZBQ-UHFFFAOYSA-N

>  <BindingDB MonomerID>  (1) 
50044348

>  <BindingDB Ligand Name>  (1) 
5-Butyl-2-(2-oxo-2-phenyl-ethyl)-4-[2'-(1H-tetrazol-5-yl)-biphenyl-4-ylmethyl]-2,4-dihydro-[1,2,4]triazol-3-one::5-Butyl-2-(2-oxo-2-phenyl-ethyl)-4-[2'-(2H-tetrazol-5-yl)-biphenyl-4-ylmethyl]-2,4-dihydro-[1,2,4]triazol-3-one::CHEMBL87942

>  <Target Name>  (1) 
Type-1 angiotensin II receptor B

>  <Target Source Organism According to Curator or DataSource>  (1) 
Rattus

>  <Ki (nM)>  (1) 


>  <IC50 (nM)>  (1) 
 7.9

>  <Kd (nM)>  (1) 


>  <EC50 (nM)>  (1) 


>  <kon (M-1-s-1)>  (1) 


>  <koff (s-1)>  (1) 


>  <pH>  (1) 


>  <Temp C>  (1) 


>  <Curation/DataSource>  (1) 
ChEMBL

>  <Article DOI>  (1) 
10.1021/jm00067a015

>  <BindingDB Entry DOI>  (1) 
10.7270/Q2C53JXM

>  <PMID>  (1) 
8340920

>  <PubChem AID>  (1) 


>  <Patent Number>  (1) 


>  <Authors>  (1) 
Huang, HC; Reitz, DB; Chamberlain, TS; Olins, GM; Corpus, VM; McMahon, EG; Palomo, MA; Koepke, JP; Smits, GJ; McGraw, DE

>  <Institution>  (1) 
Searle R&D

>  <Link to Ligand in BindingDB>  (1) 
http://www.bindingdb.org/bind/chemsearch/marvin/MolStructure.jsp?monomerid=50044348

>  <Link to Ligand-Target Pair in BindingDB>  (1) 
http://www.bindingdb.org/jsp/dbsearch/PrimarySearch_ki.jsp?energyterm=kJ/mole&tag=r21&monomerid=50044348&enzyme=Type-1+angiotensin+II+receptor+B&column=ki&startPg=0&Increment=50&submit=Search

>  <Ligand HET ID in PDB>  (1) 


>  <PDB ID(s) for Ligand-Target Complex>  (1) 


>  <PubChem CID of Ligand>  (1) 
14951059

>  <PubChem SID of Ligand>  (1) 
103975603

>  <ChEBI ID of Ligand>  (1) 


>  <ChEMBL ID of Ligand>  (1) 
CHEMBL87942

>  <DrugBank ID of Ligand>  (1) 


>  <IUPHAR_GRAC ID of Ligand>  (1) 


>  <KEGG ID of Ligand>  (1) 


>  <ZINC ID of Ligand>  (1) 
ZINC01555164

>  <Number of Protein Chains in Target (bigger than 1 implies a multichain complex)>  (1) 
1

>  <BindingDB Target Chain Sequence>  (1) 
MTLNSSTEDGIKRIQDDCPKAGRHNYIFVMIPTLYSIIFVVGIFGNSLVVIVIYFYMKLKTVASVFLLNLALADLCFLLTLPLWAVYTAMEYRWPFGNHLCKIASASVSFNLYASVFLLTCLSIDRYLAIVHPMKSRLRRTMLVAKVTCIIIWLMAGLASLPAVIYRNVYFIENTNITVCAFHYESQNSTLPIGLGLTKNILGFVFPFLIILTSYTLIWKALKKAYKIQKNTPRNDDIFRIIMAIVLFFFFSWVPHQIFTFLDVLIQLGIIRDCEIADIVDTAMPITICIAYFNNCLNPLFYGFLGKKFKKYFLQLLKYIPPTAKSHAGLSTKMSTLSYRPSDNMSSSAKKSASFFEVE

>  <PDB ID(s) of Target Chain>  (1) 


>  <UniProt (SwissProt) Recommended Name of Target Chain>  (1) 
Type-1 angiotensin II receptor B

>  <UniProt (SwissProt) Entry Name of Target Chain>  (1) 
AGTRB_RAT

>  <UniProt (SwissProt) Primary ID of Target Chain>  (1) 
P29089

>  <UniProt (SwissProt) Secondary ID(s) of Target Chain>  (1) 


>  <UniProt (SwissProt) Alternative ID(s) of Target Chain>  (1) 


>  <UniProt (TrEMBL) Submitted Name of Target Chain>  (1) 


>  <UniProt (TrEMBL) Entry Name of Target Chain>  (1) 


>  <UniProt (TrEMBL) Primary ID of Target Chain>  (1) 


>  <UniProt (TrEMBL) Secondary ID(s) of Target Chain>  (1) 


>  <UniProt (TrEMBL) Alternative ID(s) of Target Chain>  (1) 


$$$$
