
     RDKit          2D

 38 43  0  0  0  0  0  0  0  0999 V2000
   32.1455   -2.5236    0.0000 C   0  0  0  0  0  0  0  0  0  0  0  0
   32.8620   -2.1102    0.0000 N   0  0  0  0  0  0  0  0  0  0  0  0
   32.8590   -1.2796    0.0000 C   0  0  0  0  0  0  0  0  0  0  0  0
   32.1437   -0.8705    0.0000 C   0  0  0  0  0  0  0  0  0  0  0  0
   31.4307   -2.1107    0.0000 C   0  0  0  0  0  0  0  0  0  0  0  0
   31.4319   -1.2817    0.0000 C   0  0  0  0  0  0  0  0  0  0  0  0
   30.6440   -1.0244    0.0000 N   0  0  0  0  0  0  0  0  0  0  0  0
   30.1557   -1.6943    0.0000 C   0  0  0  0  0  0  0  0  0  0  0  0
   30.6420   -2.3656    0.0000 N   0  0  0  0  0  0  0  0  0  0  0  0
   29.3307   -1.6931    0.0000 C   0  0  0  0  0  0  0  0  0  0  0  0
   28.9192   -0.9781    0.0000 C   0  0  0  0  0  0  0  0  0  0  0  0
   30.3841   -3.1501    0.0000 C   0  0  0  0  0  0  0  0  0  0  0  0
   30.3823   -4.4850    0.0000 C   0  0  0  0  0  0  0  0  0  0  0  0
   30.8680   -3.8182    0.0000 C   0  0  0  0  0  0  0  0  0  0  0  0
   29.5980   -4.2289    0.0000 C   0  0  0  0  0  0  0  0  0  0  0  0
   29.6010   -3.4055    0.0000 C   0  0  0  0  0  0  0  0  0  0  0  0
   28.8905   -2.9929    0.0000 C   0  0  0  0  0  0  0  0  0  0  0  0
   28.1765   -3.4027    0.0000 C   0  0  0  0  0  0  0  0  0  0  0  0
   28.1775   -4.2292    0.0000 C   0  0  0  0  0  0  0  0  0  0  0  0
   28.8886   -4.6381    0.0000 C   0  0  0  0  0  0  0  0  0  0  0  0
   27.4639   -4.6448    0.0000 C   0  0  0  0  0  0  0  0  0  0  0  0
   26.7485   -4.2315    0.0000 C   0  0  0  0  0  0  0  0  0  0  0  0
   26.0352   -4.6445    0.0000 C   0  0  0  0  0  0  0  0  0  0  0  0
   26.0360   -5.4703    0.0000 C   0  0  0  0  0  0  0  0  0  0  0  0
   26.7560   -5.8816    0.0000 C   0  0  0  0  0  0  0  0  0  0  0  0
   27.4664   -5.4663    0.0000 C   0  0  0  0  0  0  0  0  0  0  0  0
   28.1836   -5.8764    0.0000 C   0  0  0  0  0  0  0  0  0  0  0  0
   28.2733   -6.6965    0.0000 N   0  0  0  0  0  0  0  0  0  0  0  0
   29.0811   -6.8646    0.0000 N   0  0  0  0  0  0  0  0  0  0  0  0
   29.4906   -6.1483    0.0000 N   0  0  0  0  0  0  0  0  0  0  0  0
   28.9358   -5.5377    0.0000 N   0  0  0  0  0  0  0  0  0  0  0  0
   32.1453   -3.3485    0.0000 O   0  0  0  0  0  0  0  0  0  0  0  0
   33.5770   -2.5216    0.0000 C   0  0  0  0  0  0  0  0  0  0  0  0
   33.5784   -3.3466    0.0000 C   0  0  0  0  0  0  0  0  0  0  0  0
   32.8632   -3.7586    0.0000 O   0  0  0  0  0  0  0  0  0  0  0  0
   34.2915   -3.7541    0.0000 N   0  0  0  0  0  0  0  0  0  0  0  0
   34.2951   -4.5791    0.0000 C   0  0  0  0  0  0  0  0  0  0  0  0
   35.0041   -3.3385    0.0000 C   0  0  0  0  0  0  0  0  0  0  0  0
  5  1  1  0
  1  2  1  0
  2  3  1  0
  3  4  2  0
  4  6  1  0
  5  6  2  0
  6  7  1  0
  7  8  2  0
  8  9  1  0
  9  5  1  0
  8 10  1  0
 10 11  1  0
 12 16  1  0
 15 13  1  0
 13 14  1  0
 12 14  1  0
 12  9  1  1
 15 16  2  0
 16 17  1  0
 17 18  2  0
 18 19  1  0
 19 20  2  0
 20 15  1  0
 21 22  2  0
 22 23  1  0
 23 24  2  0
 24 25  1  0
 25 26  2  0
 26 21  1  0
 19 21  1  0
 27 28  1  0
 28 29  1  0
 29 30  2  0
 30 31  1  0
 31 27  2  0
 26 27  1  0
  1 32  2  0
  2 33  1  0
 33 34  1  0
 34 35  2  0
 36 34  1  0
 36 37  1  0
 36 38  1  0
M  END
>  <From>  (1) 
www.bindingDB.org

>  <BindingDB Reactant_set_id>  (1) 
51045848

>  <Ligand InChI>  (1) 
InChI=1S/C28H28N8O2/c1-4-24-29-22-13-14-35(16-25(37)34(2)3)28(38)26(22)36(24)23-12-10-18-15-17(9-11-20(18)23)19-7-5-6-8-21(19)27-30-32-33-31-27/h5-9,11,13-15,23H,4,10,12,16H2,1-3H3,(H,30,31,32,33)/t23-/m0/s1

>  <Ligand InChI Key>  (1) 
HHBHBSKAIYFQLC-QHCPKHFHSA-N

>  <BindingDB MonomerID>  (1) 
50426773

>  <BindingDB Ligand Name>  (1) 
CHEMBL2322438

>  <Target Name>  (1) 
Type-1 angiotensin II receptor

>  <Target Source Organism According to Curator or DataSource>  (1) 
Homo sapiens

>  <Ki (nM)>  (1) 


>  <IC50 (nM)>  (1) 
 24

>  <Kd (nM)>  (1) 


>  <EC50 (nM)>  (1) 


>  <kon (M-1-s-1)>  (1) 


>  <koff (s-1)>  (1) 


>  <pH>  (1) 


>  <Temp C>  (1) 


>  <Curation/DataSource>  (1) 
ChEMBL

>  <Article DOI>  (1) 
10.1016/j.bmcl.2012.11.088

>  <BindingDB Entry DOI>  (1) 
10.7270/Q2542PW7

>  <PMID>  (1) 
23265881

>  <PubChem AID>  (1) 


>  <Patent Number>  (1) 


>  <Authors>  (1) 
Casimiro-Garcia, A; Heemstra, RJ; Bigge, CF; Chen, J; Ciske, FA; Davis, JA; Ellis, T; Esmaeil, N; Flynn, D; Han, S; Jalaie, M; Ohren, JF; Powell, NA

>  <Institution>  (1) 
Pfizer Inc

>  <Link to Ligand in BindingDB>  (1) 
http://www.bindingdb.org/bind/chemsearch/marvin/MolStructure.jsp?monomerid=50426773

>  <Link to Ligand-Target Pair in BindingDB>  (1) 
http://www.bindingdb.org/jsp/dbsearch/PrimarySearch_ki.jsp?energyterm=kJ/mole&tag=r21&monomerid=50426773&enzyme=Type-1+angiotensin+II+receptor&column=ki&startPg=0&Increment=50&submit=Search

>  <Ligand HET ID in PDB>  (1) 


>  <PDB ID(s) for Ligand-Target Complex>  (1) 


>  <PubChem CID of Ligand>  (1) 
71521195

>  <PubChem SID of Ligand>  (1) 
164155648

>  <ChEBI ID of Ligand>  (1) 


>  <ChEMBL ID of Ligand>  (1) 
CHEMBL2322438

>  <DrugBank ID of Ligand>  (1) 


>  <IUPHAR_GRAC ID of Ligand>  (1) 


>  <KEGG ID of Ligand>  (1) 


>  <ZINC ID of Ligand>  (1) 
ZINC95581017

>  <Number of Protein Chains in Target (bigger than 1 implies a multichain complex)>  (1) 
1

>  <BindingDB Target Chain Sequence>  (1) 
MILNSSTEDGIKRIQDDCPKAGRHNYIFVMIPTLYSIIFVVGIFGNSLVVIVIYFYMKLKTVASVFLLNLALADLCFLLTLPLWAVYTAMEYRWPFGNYLCKIASASVSFNLYASVFLLTCLSIDRYLAIVHPMKSRLRRTMLVAKVTCIIIWLLAGLASLPAIIHRNVFFIENTNITVCAFHYESQNSTLPIGLGLTKNILGFLFPFLIILTSYTLIWKALKKAYEIQKNKPRNDDIFKIIMAIVLFFFFSWIPHQIFTFLDVLIQLGIIRDCRIADIVDTAMPITICIAYFNNCLNPLFYGFLGKKFKRYFLQLLKYIPPKAKSHSNLSTKMSTLSYRPSDNVSSSTKKPAPCFEVE

>  <PDB ID(s) of Target Chain>  (1) 
6DO1,6OS0,6OS1,6OS2

>  <UniProt (SwissProt) Recommended Name of Target Chain>  (1) 
Type-1 angiotensin II receptor

>  <UniProt (SwissProt) Entry Name of Target Chain>  (1) 
AGTR1_HUMAN

>  <UniProt (SwissProt) Primary ID of Target Chain>  (1) 
P30556

>  <UniProt (SwissProt) Secondary ID(s) of Target Chain>  (1) 
Q13725 Q8TBK4

>  <UniProt (SwissProt) Alternative ID(s) of Target Chain>  (1) 


>  <UniProt (TrEMBL) Submitted Name of Target Chain>  (1) 


>  <UniProt (TrEMBL) Entry Name of Target Chain>  (1) 


>  <UniProt (TrEMBL) Primary ID of Target Chain>  (1) 


>  <UniProt (TrEMBL) Secondary ID(s) of Target Chain>  (1) 


>  <UniProt (TrEMBL) Alternative ID(s) of Target Chain>  (1) 


$$$$
