
     RDKit          2D

 41 45  0  0  0  0  0  0  0  0999 V2000
   25.9877   -6.5746    0.0000 C   0  0  0  0  0  0  0  0  0  0  0  0
   25.9866   -7.3942    0.0000 C   0  0  0  0  0  0  0  0  0  0  0  0
   26.6946   -7.8031    0.0000 C   0  0  0  0  0  0  0  0  0  0  0  0
   27.4043   -7.3937    0.0000 C   0  0  0  0  0  0  0  0  0  0  0  0
   27.4015   -6.5710    0.0000 C   0  0  0  0  0  0  0  0  0  0  0  0
   26.6929   -6.1658    0.0000 C   0  0  0  0  0  0  0  0  0  0  0  0
   28.1127   -7.8012    0.0000 N   0  0  0  0  0  0  0  0  0  0  0  0
   28.8197   -7.3915    0.0000 C   0  0  0  0  0  0  0  0  0  0  0  0
   29.5281   -7.7990    0.0000 C   0  0  0  0  0  0  0  0  0  0  0  0
   28.8184   -6.5743    0.0000 O   0  0  0  0  0  0  0  0  0  0  0  0
   29.5247   -8.6146    0.0000 C   0  0  0  0  0  0  0  0  0  0  0  0
   30.2322   -9.0220    0.0000 C   0  0  0  0  0  0  0  0  0  0  0  0
   30.9403   -8.6122    0.0000 C   0  0  0  0  0  0  0  0  0  0  0  0
   30.9364   -7.7908    0.0000 C   0  0  0  0  0  0  0  0  0  0  0  0
   30.2283   -7.3871    0.0000 C   0  0  0  0  0  0  0  0  0  0  0  0
   25.2799   -6.1662    0.0000 C   0  0  0  0  0  0  0  0  0  0  0  0
   25.2797   -5.3490    0.0000 N   0  0  0  0  0  0  0  0  0  0  0  0
   25.9466   -4.8697    0.0000 C   0  0  0  0  0  0  0  0  0  0  0  0
   25.6938   -4.0926    0.0000 N   0  0  0  0  0  0  0  0  0  0  0  0
   24.8766   -4.0928    0.0000 N   0  0  0  0  0  0  0  0  0  0  0  0
   24.6244   -4.8701    0.0000 C   0  0  0  0  0  0  0  0  0  0  0  0
   23.8469   -5.1217    0.0000 C   0  0  0  0  0  0  0  0  0  0  0  0
   23.6760   -5.9208    0.0000 C   0  0  0  0  0  0  0  0  0  0  0  0
   24.2827   -6.4683    0.0000 C   0  0  0  0  0  0  0  0  0  0  0  0
   30.2176   -6.5690    0.0000 C   0  0  0  0  0  0  0  0  0  0  0  0
   30.8696   -6.0787    0.0000 N   0  0  0  0  0  0  0  0  0  0  0  0
   30.6067   -5.3038    0.0000 N   0  0  0  0  0  0  0  0  0  0  0  0
   29.7884   -5.3145    0.0000 N   0  0  0  0  0  0  0  0  0  0  0  0
   29.5459   -6.0959    0.0000 N   0  0  0  0  0  0  0  0  0  0  0  0
   24.1118   -7.2675    0.0000 C   0  0  0  0  0  0  0  0  0  0  0  0
   26.7231   -5.1242    0.0000 C   0  0  0  0  0  0  0  0  0  0  0  0
   26.8911   -5.9239    0.0000 O   0  0  0  0  0  0  0  0  0  0  0  0
   27.3318   -4.5788    0.0000 N   0  0  0  0  0  0  0  0  0  0  0  0
   27.1638   -3.7791    0.0000 C   0  0  0  0  0  0  0  0  0  0  0  0
   27.7724   -3.2338    0.0000 C   0  0  0  0  0  0  0  0  0  0  0  0
   28.5509   -3.4920    0.0000 C   0  0  0  0  0  0  0  0  0  0  0  0
   29.1592   -2.9475    0.0000 C   0  0  0  0  0  0  0  0  0  0  0  0
   28.9915   -2.1468    0.0000 C   0  0  0  0  0  0  0  0  0  0  0  0
   28.2101   -1.8936    0.0000 C   0  0  0  0  0  0  0  0  0  0  0  0
   27.6052   -2.4398    0.0000 C   0  0  0  0  0  0  0  0  0  0  0  0
   28.1083   -4.8333    0.0000 C   0  0  0  0  0  0  0  0  0  0  0  0
  1  2  2  0
  2  3  1  0
  3  4  2  0
  4  5  1  0
  5  6  2  0
  6  1  1  0
  4  7  1  0
  7  8  1  0
  8  9  1  0
  8 10  2  0
  9 11  2  0
 11 12  1  0
 12 13  2  0
 13 14  1  0
 14 15  2  0
 15  9  1  0
  1 16  1  0
 16 17  1  0
 17 18  1  0
 18 19  2  0
 19 20  1  0
 20 21  2  0
 21 17  1  0
 21 22  1  0
 22 23  1  0
 23 24  1  0
 15 25  1  0
 25 26  2  0
 26 27  1  0
 27 28  2  0
 28 29  1  0
 29 25  1  0
 24 30  1  0
 18 31  1  0
 31 32  2  0
 31 33  1  0
 33 34  1  0
 34 35  1  0
 35 36  2  0
 36 37  1  0
 37 38  2  0
 38 39  1  0
 39 40  2  0
 40 35  1  0
 33 41  1  0
M  END
>  <From>  (1) 
www.bindingDB.org

>  <BindingDB Reactant_set_id>  (1) 
51183538

>  <Ligand InChI>  (1) 
InChI=1S/C30H31N9O2/c1-3-4-14-26-32-35-28(30(41)38(2)19-21-10-6-5-7-11-21)39(26)20-22-15-17-23(18-16-22)31-29(40)25-13-9-8-12-24(25)27-33-36-37-34-27/h5-13,15-18H,3-4,14,19-20H2,1-2H3,(H,31,40)(H,33,34,36,37)

>  <Ligand InChI Key>  (1) 
PPRPPVPBGZGKAF-UHFFFAOYSA-N

>  <BindingDB MonomerID>  (1) 
50486745

>  <BindingDB Ligand Name>  (1) 
CHEMBL2237581

>  <Target Name>  (1) 
Type-1 angiotensin II receptor

>  <Target Source Organism According to Curator or DataSource>  (1) 
Oryctolagus cuniculus

>  <Ki (nM)>  (1) 


>  <IC50 (nM)>  (1) 
 89

>  <Kd (nM)>  (1) 


>  <EC50 (nM)>  (1) 


>  <kon (M-1-s-1)>  (1) 


>  <koff (s-1)>  (1) 


>  <pH>  (1) 


>  <Temp C>  (1) 


>  <Curation/DataSource>  (1) 
ChEMBL

>  <Article DOI>  (1) 
10.1007/s00044-011-9756-4

>  <BindingDB Entry DOI>  (1) 
10.7270/Q2833VXQ

>  <PMID>  (1) 


>  <PubChem AID>  (1) 


>  <Patent Number>  (1) 


>  <Authors>  (1) 
n/a

>  <Institution>  (1) 
n/a

>  <Link to Ligand in BindingDB>  (1) 
http://www.bindingdb.org/bind/chemsearch/marvin/MolStructure.jsp?monomerid=50486745

>  <Link to Ligand-Target Pair in BindingDB>  (1) 
http://www.bindingdb.org/jsp/dbsearch/PrimarySearch_ki.jsp?energyterm=kJ/mole&tag=r21&monomerid=50486745&enzyme=Type-1+angiotensin+II+receptor&column=ki&startPg=0&Increment=50&submit=Search

>  <Ligand HET ID in PDB>  (1) 


>  <PDB ID(s) for Ligand-Target Complex>  (1) 


>  <PubChem CID of Ligand>  (1) 
76315366

>  <PubChem SID of Ligand>  (1) 
433954010

>  <ChEBI ID of Ligand>  (1) 


>  <ChEMBL ID of Ligand>  (1) 


>  <DrugBank ID of Ligand>  (1) 


>  <IUPHAR_GRAC ID of Ligand>  (1) 


>  <KEGG ID of Ligand>  (1) 


>  <ZINC ID of Ligand>  (1) 


>  <Number of Protein Chains in Target (bigger than 1 implies a multichain complex)>  (1) 
1

>  <BindingDB Target Chain Sequence>  (1) 
MMLNSSTEDGIKRIQDDCPKAGRHNYIFVMIPTLYSIIFVVGIFGNSLAVIVIYFYMKLKTVASVFLLNLALADLCFLLTLPLWAVYTAMEYRWPFGNYLCKIASASVSFNLYASVFLLTCLSIDRYLAIVHPMKSRLRRTMLVAKVTCIIIWLLAGLASLPAIIHRNVFFIENTNITVCAFHYESQNSTLPIGLGLTKNILGFLFPFLIILTSYTLIWKALKKAYEIQKNKPRNDDIFKIIMAIVLFFFFSWVPHQIFTFLDVLIQLGVIHDCRIADIVDTAMPITICIAYFNNCLNPLFYGFLGKKFKKYFLQLLKYIPPKAKSHSNLSTKMSTLSYRPSDNVSSSSKKPVPCFEVE

>  <PDB ID(s) of Target Chain>  (1) 
6DO1,6OS0,6OS1,6OS2

>  <UniProt (SwissProt) Recommended Name of Target Chain>  (1) 
Type-1 angiotensin II receptor

>  <UniProt (SwissProt) Entry Name of Target Chain>  (1) 
AGTR1_RABIT

>  <UniProt (SwissProt) Primary ID of Target Chain>  (1) 
P34976

>  <UniProt (SwissProt) Secondary ID(s) of Target Chain>  (1) 


>  <UniProt (SwissProt) Alternative ID(s) of Target Chain>  (1) 


>  <UniProt (TrEMBL) Submitted Name of Target Chain>  (1) 


>  <UniProt (TrEMBL) Entry Name of Target Chain>  (1) 


>  <UniProt (TrEMBL) Primary ID of Target Chain>  (1) 


>  <UniProt (TrEMBL) Secondary ID(s) of Target Chain>  (1) 


>  <UniProt (TrEMBL) Alternative ID(s) of Target Chain>  (1) 


$$$$
