
     RDKit          2D

 40 46  0  0  0  0  0  0  0  0999 V2000
   -0.5614   -1.9307    0.0000 C   0  0  0  0  0  0  0  0  0  0  0  0
   -1.3004   -1.5640    0.0000 N   0  0  0  0  0  0  0  0  0  0  0  0
    2.3603   -1.9135    0.0000 N   0  0  0  0  0  0  0  0  0  0  0  0
   -0.6875   -2.7499    0.0000 N   0  0  0  0  0  0  0  0  0  0  0  0
    2.4291   -0.5729    0.0000 N   0  0  0  0  0  0  0  0  0  0  0  0
    2.8759   -1.2718    0.0000 C   0  0  0  0  0  0  0  0  0  0  0  0
    1.5869   -1.6213    0.0000 C   0  0  0  0  0  0  0  0  0  0  0  0
    5.9180   -3.1509    0.0000 C   0  0  0  0  0  0  0  0  0  0  0  0
    5.4997   -1.8905    0.0000 N   0  0  0  0  0  0  0  0  0  0  0  0
    5.2477   -2.6697    0.0000 N   0  0  0  0  0  0  0  0  0  0  0  0
    6.3247   -1.8791    0.0000 N   0  0  0  0  0  0  0  0  0  0  0  0
    1.6327   -0.7964    0.0000 C   0  0  0  0  0  0  0  0  0  0  0  0
   -1.5067   -2.8759    0.0000 C   0  0  0  0  0  0  0  0  0  0  0  0
    6.5825   -2.6639    0.0000 N   0  0  0  0  0  0  0  0  0  0  0  0
    0.1719   -1.5526    0.0000 C   0  0  0  0  0  0  0  0  0  0  0  0
   -1.8848   -2.1483    0.0000 C   0  0  0  0  0  0  0  0  0  0  0  0
    0.8593   -1.9994    0.0000 C   0  0  0  0  0  0  0  0  0  0  0  0
    5.9294   -3.9759    0.0000 C   0  0  0  0  0  0  0  0  0  0  0  0
    5.2133   -4.3884    0.0000 C   0  0  0  0  0  0  0  0  0  0  0  0
    2.3603   -2.7385    0.0000 C   0  0  0  0  0  0  0  0  0  0  0  0
    4.5029   -3.9759    0.0000 C   0  0  0  0  0  0  0  0  0  0  0  0
    0.9339   -0.3495    0.0000 C   0  0  0  0  0  0  0  0  0  0  0  0
    0.2062   -0.7276    0.0000 C   0  0  0  0  0  0  0  0  0  0  0  0
    3.7868   -4.3884    0.0000 C   0  0  0  0  0  0  0  0  0  0  0  0
    4.5029   -3.1509    0.0000 C   0  0  0  0  0  0  0  0  0  0  0  0
    3.0764   -3.1509    0.0000 C   0  0  0  0  0  0  0  0  0  0  0  0
   -0.1031   -3.3228    0.0000 C   0  0  0  0  0  0  0  0  0  0  0  0
    3.7009   -1.3120    0.0000 C   0  0  0  0  0  0  0  0  0  0  0  0
    3.0764   -3.9759    0.0000 C   0  0  0  0  0  0  0  0  0  0  0  0
    3.7868   -2.7385    0.0000 C   0  0  0  0  0  0  0  0  0  0  0  0
   -1.9421   -3.5748    0.0000 C   0  0  0  0  0  0  0  0  0  0  0  0
    6.6398   -4.3826    0.0000 C   0  0  0  0  0  0  0  0  0  0  0  0
   -2.7097   -2.1140    0.0000 C   0  0  0  0  0  0  0  0  0  0  0  0
    5.2133   -5.2133    0.0000 C   0  0  0  0  0  0  0  0  0  0  0  0
    4.1478   -0.6187    0.0000 C   0  0  0  0  0  0  0  0  0  0  0  0
   -2.7671   -3.5405    0.0000 C   0  0  0  0  0  0  0  0  0  0  0  0
    6.6512   -5.2133    0.0000 C   0  0  0  0  0  0  0  0  0  0  0  0
    5.9352   -5.6258    0.0000 C   0  0  0  0  0  0  0  0  0  0  0  0
   -3.1452   -2.8072    0.0000 C   0  0  0  0  0  0  0  0  0  0  0  0
    4.9727   -0.6589    0.0000 C   0  0  0  0  0  0  0  0  0  0  0  0
  2  1  2  0
  3  7  1  0
  4  1  1  0
  5 12  1  0
  6  3  1  0
  7 17  2  0
  8 18  1  0
  9 10  1  0
 10  8  1  0
 11 14  1  0
 12 22  2  0
 13  4  1  0
 14  8  2  0
 15  1  1  0
 16  2  1  0
 17 15  1  0
 18 19  1  0
 19 21  1  0
 20  3  1  0
 21 25  2  0
 22 23  1  0
 23 15  2  0
 24 29  2  0
 25 30  1  0
 26 20  1  0
 27  4  1  0
 28  6  1  0
 29 26  1  0
 30 26  2  0
 31 13  2  0
 32 18  2  0
 33 16  2  0
 34 19  2  0
 35 28  1  0
 36 31  1  0
 37 38  2  0
 38 34  1  0
 39 33  1  0
 40 35  1  0
 16 13  1  0
 12  7  1  0
 36 39  2  0
  5  6  2  0
 21 24  1  0
 32 37  1  0
  9 11  2  0
M  END
>  <From>  (1) 
www.bindingDB.org

>  <BindingDB Reactant_set_id>  (1) 
50069248

>  <Ligand InChI>  (1) 
InChI=1S/C32H28N8/c1-3-8-30-33-27-18-17-23(32-34-26-11-6-7-12-28(26)39(32)2)19-29(27)40(30)20-21-13-15-22(16-14-21)24-9-4-5-10-25(24)31-35-37-38-36-31/h4-7,9-19H,3,8,20H2,1-2H3,(H,35,36,37,38)

>  <Ligand InChI Key>  (1) 
CFMSUUJPNFRBBQ-UHFFFAOYSA-N

>  <BindingDB MonomerID>  (1) 
50043279

>  <BindingDB Ligand Name>  (1) 
1-Methyl-2'-propyl-3'-[2'-(1H-tetrazol-5-yl)-biphenyl-4-ylmethyl]-1H,3'H-[2,5']bibenzoimidazolyl::CHEMBL337232

>  <Target Name>  (1) 
Type-1 angiotensin II receptor B

>  <Target Source Organism According to Curator or DataSource>  (1) 
Rattus

>  <Ki (nM)>  (1) 


>  <IC50 (nM)>  (1) 
 5

>  <Kd (nM)>  (1) 


>  <EC50 (nM)>  (1) 


>  <kon (M-1-s-1)>  (1) 


>  <koff (s-1)>  (1) 


>  <pH>  (1) 


>  <Temp C>  (1) 


>  <Curation/DataSource>  (1) 
ChEMBL

>  <Article DOI>  (1) 
10.1021/jm00077a007

>  <BindingDB Entry DOI>  (1) 
10.7270/Q2V98746

>  <PMID>  (1) 
8258826

>  <PubChem AID>  (1) 


>  <Patent Number>  (1) 


>  <Authors>  (1) 
Ries, UJ; Mihm, G; Narr, B; Hasselbach, KM; Wittneben, H; Entzeroth, M; van Meel, JC; Wienen, W; Hauel, NH

>  <Institution>  (1) 
Dr. Karl Thomae GmbH

>  <Link to Ligand in BindingDB>  (1) 
http://www.bindingdb.org/bind/chemsearch/marvin/MolStructure.jsp?monomerid=50043279

>  <Link to Ligand-Target Pair in BindingDB>  (1) 
http://www.bindingdb.org/jsp/dbsearch/PrimarySearch_ki.jsp?energyterm=kJ/mole&tag=r21&monomerid=50043279&enzyme=Type-1+angiotensin+II+receptor+B&column=ki&startPg=0&Increment=50&submit=Search

>  <Ligand HET ID in PDB>  (1) 


>  <PDB ID(s) for Ligand-Target Complex>  (1) 


>  <PubChem CID of Ligand>  (1) 
10481936

>  <PubChem SID of Ligand>  (1) 
103974748

>  <ChEBI ID of Ligand>  (1) 


>  <ChEMBL ID of Ligand>  (1) 
CHEMBL337232

>  <DrugBank ID of Ligand>  (1) 


>  <IUPHAR_GRAC ID of Ligand>  (1) 


>  <KEGG ID of Ligand>  (1) 


>  <ZINC ID of Ligand>  (1) 
ZINC13732075

>  <Number of Protein Chains in Target (bigger than 1 implies a multichain complex)>  (1) 
1

>  <BindingDB Target Chain Sequence>  (1) 
MTLNSSTEDGIKRIQDDCPKAGRHNYIFVMIPTLYSIIFVVGIFGNSLVVIVIYFYMKLKTVASVFLLNLALADLCFLLTLPLWAVYTAMEYRWPFGNHLCKIASASVSFNLYASVFLLTCLSIDRYLAIVHPMKSRLRRTMLVAKVTCIIIWLMAGLASLPAVIYRNVYFIENTNITVCAFHYESQNSTLPIGLGLTKNILGFVFPFLIILTSYTLIWKALKKAYKIQKNTPRNDDIFRIIMAIVLFFFFSWVPHQIFTFLDVLIQLGIIRDCEIADIVDTAMPITICIAYFNNCLNPLFYGFLGKKFKKYFLQLLKYIPPTAKSHAGLSTKMSTLSYRPSDNMSSSAKKSASFFEVE

>  <PDB ID(s) of Target Chain>  (1) 


>  <UniProt (SwissProt) Recommended Name of Target Chain>  (1) 
Type-1 angiotensin II receptor B

>  <UniProt (SwissProt) Entry Name of Target Chain>  (1) 
AGTRB_RAT

>  <UniProt (SwissProt) Primary ID of Target Chain>  (1) 
P29089

>  <UniProt (SwissProt) Secondary ID(s) of Target Chain>  (1) 


>  <UniProt (SwissProt) Alternative ID(s) of Target Chain>  (1) 


>  <UniProt (TrEMBL) Submitted Name of Target Chain>  (1) 


>  <UniProt (TrEMBL) Entry Name of Target Chain>  (1) 


>  <UniProt (TrEMBL) Primary ID of Target Chain>  (1) 


>  <UniProt (TrEMBL) Secondary ID(s) of Target Chain>  (1) 


>  <UniProt (TrEMBL) Alternative ID(s) of Target Chain>  (1) 


$$$$
