
     RDKit          2D

 43 48  0  0  0  0  0  0  0  0999 V2000
    8.6864   -5.5428    0.0000 C   0  0  0  0  0  0  0  0  0  0  0  0
    8.6853   -6.3624    0.0000 C   0  0  0  0  0  0  0  0  0  0  0  0
    9.3933   -6.7713    0.0000 C   0  0  0  0  0  0  0  0  0  0  0  0
   10.1030   -6.3619    0.0000 C   0  0  0  0  0  0  0  0  0  0  0  0
   10.1001   -5.5392    0.0000 C   0  0  0  0  0  0  0  0  0  0  0  0
    9.3915   -5.1340    0.0000 C   0  0  0  0  0  0  0  0  0  0  0  0
   10.8113   -6.7694    0.0000 N   0  0  0  0  0  0  0  0  0  0  0  0
   11.5184   -6.3597    0.0000 C   0  0  0  0  0  0  0  0  0  0  0  0
   12.2267   -6.7672    0.0000 C   0  0  0  0  0  0  0  0  0  0  0  0
   11.5171   -5.5425    0.0000 O   0  0  0  0  0  0  0  0  0  0  0  0
   12.2234   -7.5828    0.0000 C   0  0  0  0  0  0  0  0  0  0  0  0
   12.9309   -7.9902    0.0000 C   0  0  0  0  0  0  0  0  0  0  0  0
   13.6389   -7.5804    0.0000 C   0  0  0  0  0  0  0  0  0  0  0  0
   13.6350   -6.7590    0.0000 C   0  0  0  0  0  0  0  0  0  0  0  0
   12.9269   -6.3553    0.0000 C   0  0  0  0  0  0  0  0  0  0  0  0
    7.9786   -5.1344    0.0000 C   0  0  0  0  0  0  0  0  0  0  0  0
    7.9784   -4.3172    0.0000 N   0  0  0  0  0  0  0  0  0  0  0  0
    8.6452   -3.8379    0.0000 C   0  0  0  0  0  0  0  0  0  0  0  0
    8.3925   -3.0608    0.0000 N   0  0  0  0  0  0  0  0  0  0  0  0
    7.5752   -3.0610    0.0000 N   0  0  0  0  0  0  0  0  0  0  0  0
    7.3230   -3.8383    0.0000 C   0  0  0  0  0  0  0  0  0  0  0  0
    6.5455   -4.0899    0.0000 C   0  0  0  0  0  0  0  0  0  0  0  0
    6.3747   -4.8890    0.0000 C   0  0  0  0  0  0  0  0  0  0  0  0
    6.9813   -5.4365    0.0000 C   0  0  0  0  0  0  0  0  0  0  0  0
   12.9163   -5.5372    0.0000 C   0  0  0  0  0  0  0  0  0  0  0  0
    9.4218   -4.0924    0.0000 S   0  0  0  0  0  0  0  0  0  0  0  0
   10.0304   -3.5470    0.0000 C   0  0  0  0  0  0  0  0  0  0  0  0
   13.5683   -5.0469    0.0000 N   0  0  0  0  0  0  0  0  0  0  0  0
   13.3053   -4.2720    0.0000 N   0  0  0  0  0  0  0  0  0  0  0  0
   12.4871   -4.2827    0.0000 N   0  0  0  0  0  0  0  0  0  0  0  0
   12.2445   -5.0641    0.0000 N   0  0  0  0  0  0  0  0  0  0  0  0
    9.8625   -2.7473    0.0000 C   0  0  0  0  0  0  0  0  0  0  0  0
   10.4734   -2.2070    0.0000 C   0  0  0  0  0  0  0  0  0  0  0  0
   10.3059   -1.4079    0.0000 C   0  0  0  0  0  0  0  0  0  0  0  0
    9.5287   -1.1528    0.0000 C   0  0  0  0  0  0  0  0  0  0  0  0
    8.9186   -1.7029    0.0000 C   0  0  0  0  0  0  0  0  0  0  0  0
    9.0892   -2.4999    0.0000 C   0  0  0  0  0  0  0  0  0  0  0  0
    6.8104   -6.2356    0.0000 C   0  0  0  0  0  0  0  0  0  0  0  0
   11.2491   -2.4640    0.0000 C   0  0  0  0  0  0  0  0  0  0  0  0
   11.4920   -3.2415    0.0000 N   0  0  0  0  0  0  0  0  0  0  0  0
   12.3092   -3.2463    0.0000 N   0  0  0  0  0  0  0  0  0  0  0  0
   12.5663   -2.4706    0.0000 N   0  0  0  0  0  0  0  0  0  0  0  0
   11.9079   -1.9865    0.0000 N   0  0  0  0  0  0  0  0  0  0  0  0
  1  2  2  0
  2  3  1  0
  3  4  2  0
  4  5  1  0
  5  6  2  0
  6  1  1  0
  4  7  1  0
  7  8  1  0
  8  9  1  0
  8 10  2  0
  9 11  2  0
 11 12  1  0
 12 13  2  0
 13 14  1  0
 14 15  2  0
 15  9  1  0
  1 16  1  0
 16 17  1  0
 17 18  1  0
 18 19  2  0
 19 20  1  0
 20 21  2  0
 21 17  1  0
 21 22  1  0
 22 23  1  0
 23 24  1  0
 15 25  1  0
 18 26  1  0
 26 27  1  0
 25 28  2  0
 28 29  1  0
 29 30  2  0
 30 31  1  0
 31 25  1  0
 27 32  1  0
 32 33  1  0
 33 34  2  0
 34 35  1  0
 35 36  2  0
 36 37  1  0
 37 32  2  0
 24 38  1  0
 33 39  1  0
 39 40  2  0
 40 41  1  0
 41 42  2  0
 42 43  1  0
 43 39  1  0
M  END
>  <From>  (1) 
www.bindingDB.org

>  <BindingDB Reactant_set_id>  (1) 
51183527

>  <Ligand InChI>  (1) 
InChI=1S/C29H28N12OS/c1-2-3-12-25-31-36-29(43-18-20-8-4-5-9-22(20)26-32-37-38-33-26)41(25)17-19-13-15-21(16-14-19)30-28(42)24-11-7-6-10-23(24)27-34-39-40-35-27/h4-11,13-16H,2-3,12,17-18H2,1H3,(H,30,42)(H,32,33,37,38)(H,34,35,39,40)

>  <Ligand InChI Key>  (1) 
HCVQVBOACLGIHJ-UHFFFAOYSA-N

>  <BindingDB MonomerID>  (1) 
50486738

>  <BindingDB Ligand Name>  (1) 
CHEMBL2237602

>  <Target Name>  (1) 
Type-1 angiotensin II receptor

>  <Target Source Organism According to Curator or DataSource>  (1) 
Oryctolagus cuniculus

>  <Ki (nM)>  (1) 


>  <IC50 (nM)>  (1) 
 1.4

>  <Kd (nM)>  (1) 


>  <EC50 (nM)>  (1) 


>  <kon (M-1-s-1)>  (1) 


>  <koff (s-1)>  (1) 


>  <pH>  (1) 


>  <Temp C>  (1) 


>  <Curation/DataSource>  (1) 
ChEMBL

>  <Article DOI>  (1) 
10.1007/s00044-011-9756-4

>  <BindingDB Entry DOI>  (1) 
10.7270/Q2833VXQ

>  <PMID>  (1) 


>  <PubChem AID>  (1) 


>  <Patent Number>  (1) 


>  <Authors>  (1) 
n/a

>  <Institution>  (1) 
n/a

>  <Link to Ligand in BindingDB>  (1) 
http://www.bindingdb.org/bind/chemsearch/marvin/MolStructure.jsp?monomerid=50486738

>  <Link to Ligand-Target Pair in BindingDB>  (1) 
http://www.bindingdb.org/jsp/dbsearch/PrimarySearch_ki.jsp?energyterm=kJ/mole&tag=r21&monomerid=50486738&enzyme=Type-1+angiotensin+II+receptor&column=ki&startPg=0&Increment=50&submit=Search

>  <Ligand HET ID in PDB>  (1) 


>  <PDB ID(s) for Ligand-Target Complex>  (1) 


>  <PubChem CID of Ligand>  (1) 
76311803

>  <PubChem SID of Ligand>  (1) 
433954003

>  <ChEBI ID of Ligand>  (1) 


>  <ChEMBL ID of Ligand>  (1) 


>  <DrugBank ID of Ligand>  (1) 


>  <IUPHAR_GRAC ID of Ligand>  (1) 


>  <KEGG ID of Ligand>  (1) 


>  <ZINC ID of Ligand>  (1) 


>  <Number of Protein Chains in Target (bigger than 1 implies a multichain complex)>  (1) 
1

>  <BindingDB Target Chain Sequence>  (1) 
MMLNSSTEDGIKRIQDDCPKAGRHNYIFVMIPTLYSIIFVVGIFGNSLAVIVIYFYMKLKTVASVFLLNLALADLCFLLTLPLWAVYTAMEYRWPFGNYLCKIASASVSFNLYASVFLLTCLSIDRYLAIVHPMKSRLRRTMLVAKVTCIIIWLLAGLASLPAIIHRNVFFIENTNITVCAFHYESQNSTLPIGLGLTKNILGFLFPFLIILTSYTLIWKALKKAYEIQKNKPRNDDIFKIIMAIVLFFFFSWVPHQIFTFLDVLIQLGVIHDCRIADIVDTAMPITICIAYFNNCLNPLFYGFLGKKFKKYFLQLLKYIPPKAKSHSNLSTKMSTLSYRPSDNVSSSSKKPVPCFEVE

>  <PDB ID(s) of Target Chain>  (1) 
6DO1,6OS0,6OS1,6OS2

>  <UniProt (SwissProt) Recommended Name of Target Chain>  (1) 
Type-1 angiotensin II receptor

>  <UniProt (SwissProt) Entry Name of Target Chain>  (1) 
AGTR1_RABIT

>  <UniProt (SwissProt) Primary ID of Target Chain>  (1) 
P34976

>  <UniProt (SwissProt) Secondary ID(s) of Target Chain>  (1) 


>  <UniProt (SwissProt) Alternative ID(s) of Target Chain>  (1) 


>  <UniProt (TrEMBL) Submitted Name of Target Chain>  (1) 


>  <UniProt (TrEMBL) Entry Name of Target Chain>  (1) 


>  <UniProt (TrEMBL) Primary ID of Target Chain>  (1) 


>  <UniProt (TrEMBL) Secondary ID(s) of Target Chain>  (1) 


>  <UniProt (TrEMBL) Alternative ID(s) of Target Chain>  (1) 


$$$$
