
     RDKit          2D

 42 46  0  0  0  0  0  0  0  0999 V2000
    4.2175    1.2877    0.0000 S   0  0  0  0  0  0  0  0  0  0  0  0
    4.3050    0.4709    0.0000 C   0  0  0  0  0  0  0  0  0  0  0  0
    0.2167    1.3836    0.0000 N   0  0  0  0  0  0  0  0  0  0  0  0
   -0.5709    1.6378    0.0000 C   0  0  0  0  0  0  0  0  0  0  0  0
    0.2167    2.7213    0.0000 N   0  0  0  0  0  0  0  0  0  0  0  0
    4.2175    2.1129    0.0000 N   0  0  0  0  0  0  0  0  0  0  0  0
    0.7043    2.0504    0.0000 C   0  0  0  0  0  0  0  0  0  0  0  0
    3.7007   -0.0875    0.0000 C   0  0  0  0  0  0  0  0  0  0  0  0
   -0.5709    2.4630    0.0000 C   0  0  0  0  0  0  0  0  0  0  0  0
    5.0259    0.0583    0.0000 S   0  0  0  0  0  0  0  0  0  0  0  0
   -1.2835    1.2210    0.0000 N   0  0  0  0  0  0  0  0  0  0  0  0
    4.9259    2.5338    0.0000 C   0  0  0  0  0  0  0  0  0  0  0  0
    4.0300   -0.8377    0.0000 C   0  0  0  0  0  0  0  0  0  0  0  0
    4.8551   -0.7501    0.0000 C   0  0  0  0  0  0  0  0  0  0  0  0
   -1.2835    2.8755    0.0000 C   0  0  0  0  0  0  0  0  0  0  0  0
    4.8884    1.7753    0.0000 O   0  0  0  0  0  0  0  0  0  0  0  0
    3.4674    1.6211    0.0000 O   0  0  0  0  0  0  0  0  0  0  0  0
    0.4751    0.5959    0.0000 C   0  0  0  0  0  0  0  0  0  0  0  0
    2.8922    0.0833    0.0000 C   0  0  0  0  0  0  0  0  0  0  0  0
   -1.9962    1.6336    0.0000 C   0  0  0  0  0  0  0  0  0  0  0  0
   -1.9962    2.4630    0.0000 C   0  0  0  0  0  0  0  0  0  0  0  0
    4.9176    3.3589    0.0000 O   0  0  0  0  0  0  0  0  0  0  0  0
    5.6428    2.1254    0.0000 C   0  0  0  0  0  0  0  0  0  0  0  0
    2.3421   -0.5293    0.0000 C   0  0  0  0  0  0  0  0  0  0  0  0
    2.6297    0.8710    0.0000 C   0  0  0  0  0  0  0  0  0  0  0  0
    1.2794    0.4251    0.0000 C   0  0  0  0  0  0  0  0  0  0  0  0
    1.5295    2.0504    0.0000 C   0  0  0  0  0  0  0  0  0  0  0  0
    1.8295    1.0377    0.0000 C   0  0  0  0  0  0  0  0  0  0  0  0
    1.5295   -0.3543    0.0000 C   0  0  0  0  0  0  0  0  0  0  0  0
    5.4052   -1.3628    0.0000 C   0  0  0  0  0  0  0  0  0  0  0  0
   -1.2877    3.7090    0.0000 C   0  0  0  0  0  0  0  0  0  0  0  0
   -2.7130    1.2210    0.0000 C   0  0  0  0  0  0  0  0  0  0  0  0
    6.3512    2.5463    0.0000 C   0  0  0  0  0  0  0  0  0  0  0  0
    5.6428    1.3002    0.0000 C   0  0  0  0  0  0  0  0  0  0  0  0
    5.1552   -2.1504    0.0000 C   0  0  0  0  0  0  0  0  0  0  0  0
    1.9421    2.7713    0.0000 C   0  0  0  0  0  0  0  0  0  0  0  0
    5.4552   -3.5424    0.0000 C   0  0  0  0  0  0  0  0  0  0  0  0
    5.7053   -2.7630    0.0000 C   0  0  0  0  0  0  0  0  0  0  0  0
    6.0053   -4.1550    0.0000 C   0  0  0  0  0  0  0  0  0  0  0  0
    7.0680    2.1462    0.0000 C   0  0  0  0  0  0  0  0  0  0  0  0
    6.3637    0.8960    0.0000 C   0  0  0  0  0  0  0  0  0  0  0  0
    7.0763    1.3085    0.0000 C   0  0  0  0  0  0  0  0  0  0  0  0
  2  1  1  0
  3 18  1  0
  4  3  1  0
  5  7  2  0
  6  1  1  0
  7  3  1  0
  8  2  2  0
  9  4  2  0
 10  2  1  0
 11  4  1  0
 12  6  1  0
 13  8  1  0
 14 10  1  0
 15  9  1  0
 16  1  2  0
 17  1  2  0
 18 26  1  0
 19  8  1  0
 20 11  2  0
 21 20  1  0
 22 12  2  0
 23 12  1  0
 24 19  2  0
 25 19  1  0
 26 28  1  0
 27  7  1  0
 28 25  2  0
 29 24  1  0
 30 14  1  0
 31 15  1  0
 32 20  1  0
 33 23  2  0
 34 23  1  0
 35 30  1  0
 36 27  1  0
 37 38  1  0
 38 35  1  0
 39 37  1  0
 40 33  1  0
 41 34  2  0
 42 41  1  0
 14 13  2  0
 29 26  2  0
 42 40  2  0
  9  5  1  0
 21 15  2  0
M  END
>  <From>  (1) 
www.bindingDB.org

>  <BindingDB Reactant_set_id>  (1) 
50002559

>  <Ligand InChI>  (1) 
InChI=1S/C33H36N4O3S2/c1-5-7-9-14-27-20-28(33(41-27)42(39,40)36-32(38)26-12-10-8-11-13-26)25-17-15-24(16-18-25)21-37-29(6-2)35-30-22(3)19-23(4)34-31(30)37/h8,10-13,15-20H,5-7,9,14,21H2,1-4H3,(H,36,38)

>  <Ligand InChI Key>  (1) 
NOCPYKVHPZVKJD-UHFFFAOYSA-N

>  <BindingDB MonomerID>  (1) 
50282306

>  <BindingDB Ligand Name>  (1) 
3-[4-(2-Ethyl-5,7-dimethyl-imidazo[4,5-b]pyridin-3-ylmethyl)-phenyl]-5-pentyl-thiophene-2-sulfonic acid benzoylamide::CHEMBL293949

>  <Target Name>  (1) 
Type-1 angiotensin II receptor

>  <Target Source Organism According to Curator or DataSource>  (1) 
Oryctolagus cuniculus

>  <Ki (nM)>  (1) 


>  <IC50 (nM)>  (1) 
 7.5

>  <Kd (nM)>  (1) 


>  <EC50 (nM)>  (1) 


>  <kon (M-1-s-1)>  (1) 


>  <koff (s-1)>  (1) 


>  <pH>  (1) 


>  <Temp C>  (1) 


>  <Curation/DataSource>  (1) 
ChEMBL

>  <Article DOI>  (1) 
10.1016/S0960-894X(01)81145-8

>  <BindingDB Entry DOI>  (1) 
10.7270/Q22Z15GM

>  <PMID>  (1) 


>  <PubChem AID>  (1) 


>  <Patent Number>  (1) 


>  <Authors>  (1) 
Kevin, NJ; Rivero, RA; Greenlee, WJ; Chang, RS; Chen, TB

>  <Institution>  (1) 
TBA

>  <Link to Ligand in BindingDB>  (1) 
http://www.bindingdb.org/bind/chemsearch/marvin/MolStructure.jsp?monomerid=50282306

>  <Link to Ligand-Target Pair in BindingDB>  (1) 
http://www.bindingdb.org/jsp/dbsearch/PrimarySearch_ki.jsp?energyterm=kJ/mole&tag=r21&monomerid=50282306&enzyme=Type-1+angiotensin+II+receptor&column=ki&startPg=0&Increment=50&submit=Search

>  <Ligand HET ID in PDB>  (1) 


>  <PDB ID(s) for Ligand-Target Complex>  (1) 


>  <PubChem CID of Ligand>  (1) 
44300637

>  <PubChem SID of Ligand>  (1) 
104123980

>  <ChEBI ID of Ligand>  (1) 


>  <ChEMBL ID of Ligand>  (1) 
CHEMBL293949

>  <DrugBank ID of Ligand>  (1) 


>  <IUPHAR_GRAC ID of Ligand>  (1) 


>  <KEGG ID of Ligand>  (1) 


>  <ZINC ID of Ligand>  (1) 
ZINC29564080

>  <Number of Protein Chains in Target (bigger than 1 implies a multichain complex)>  (1) 
1

>  <BindingDB Target Chain Sequence>  (1) 
MMLNSSTEDGIKRIQDDCPKAGRHNYIFVMIPTLYSIIFVVGIFGNSLAVIVIYFYMKLKTVASVFLLNLALADLCFLLTLPLWAVYTAMEYRWPFGNYLCKIASASVSFNLYASVFLLTCLSIDRYLAIVHPMKSRLRRTMLVAKVTCIIIWLLAGLASLPAIIHRNVFFIENTNITVCAFHYESQNSTLPIGLGLTKNILGFLFPFLIILTSYTLIWKALKKAYEIQKNKPRNDDIFKIIMAIVLFFFFSWVPHQIFTFLDVLIQLGVIHDCRIADIVDTAMPITICIAYFNNCLNPLFYGFLGKKFKKYFLQLLKYIPPKAKSHSNLSTKMSTLSYRPSDNVSSSSKKPVPCFEVE

>  <PDB ID(s) of Target Chain>  (1) 
6DO1,6OS0,6OS1,6OS2

>  <UniProt (SwissProt) Recommended Name of Target Chain>  (1) 
Type-1 angiotensin II receptor

>  <UniProt (SwissProt) Entry Name of Target Chain>  (1) 
AGTR1_RABIT

>  <UniProt (SwissProt) Primary ID of Target Chain>  (1) 
P34976

>  <UniProt (SwissProt) Secondary ID(s) of Target Chain>  (1) 


>  <UniProt (SwissProt) Alternative ID(s) of Target Chain>  (1) 


>  <UniProt (TrEMBL) Submitted Name of Target Chain>  (1) 


>  <UniProt (TrEMBL) Entry Name of Target Chain>  (1) 


>  <UniProt (TrEMBL) Primary ID of Target Chain>  (1) 


>  <UniProt (TrEMBL) Secondary ID(s) of Target Chain>  (1) 


>  <UniProt (TrEMBL) Alternative ID(s) of Target Chain>  (1) 


$$$$
