
     RDKit          2D

 42 46  0  0  0  0  0  0  0  0999 V2000
   10.7870   -7.3714    0.0000 C   0  0  0  0  0  0  0  0  0  0  0  0
   10.9549   -6.5567    0.0000 C   0  0  0  0  0  0  0  0  0  0  0  0
   10.3324   -6.0036    0.0000 C   0  0  0  0  0  0  0  0  0  0  0  0
    9.5427   -6.2641    0.0000 C   0  0  0  0  0  0  0  0  0  0  0  0
    9.3759   -7.0823    0.0000 C   0  0  0  0  0  0  0  0  0  0  0  0
    9.9966   -7.6312    0.0000 C   0  0  0  0  0  0  0  0  0  0  0  0
    8.9228   -5.7132    0.0000 N   0  0  0  0  0  0  0  0  0  0  0  0
    8.1356   -5.9746    0.0000 C   0  0  0  0  0  0  0  0  0  0  0  0
    7.5157   -5.4235    0.0000 C   0  0  0  0  0  0  0  0  0  0  0  0
    7.9684   -6.7869    0.0000 O   0  0  0  0  0  0  0  0  0  0  0  0
    7.6871   -4.6136    0.0000 C   0  0  0  0  0  0  0  0  0  0  0  0
    7.0680   -4.0628    0.0000 C   0  0  0  0  0  0  0  0  0  0  0  0
    6.2799   -4.3241    0.0000 C   0  0  0  0  0  0  0  0  0  0  0  0
    6.1144   -5.1412    0.0000 C   0  0  0  0  0  0  0  0  0  0  0  0
    6.7349   -5.6884    0.0000 C   0  0  0  0  0  0  0  0  0  0  0  0
   11.4021   -7.9223    0.0000 C   0  0  0  0  0  0  0  0  0  0  0  0
   11.2334   -8.7344    0.0000 N   0  0  0  0  0  0  0  0  0  0  0  0
   10.4766   -9.0743    0.0000 C   0  0  0  0  0  0  0  0  0  0  0  0
   10.5656   -9.8983    0.0000 N   0  0  0  0  0  0  0  0  0  0  0  0
   11.3777  -10.0666    0.0000 N   0  0  0  0  0  0  0  0  0  0  0  0
   11.7877   -9.3460    0.0000 C   0  0  0  0  0  0  0  0  0  0  0  0
   12.6174   -9.2573    0.0000 C   0  0  0  0  0  0  0  0  0  0  0  0
   12.9487   -8.4976    0.0000 C   0  0  0  0  0  0  0  0  0  0  0  0
   12.4586   -7.8284    0.0000 C   0  0  0  0  0  0  0  0  0  0  0  0
    6.5767   -6.5038    0.0000 C   0  0  0  0  0  0  0  0  0  0  0  0
    9.7517   -8.6602    0.0000 S   0  0  0  0  0  0  0  0  0  0  0  0
    9.0344   -9.0766    0.0000 C   0  0  0  0  0  0  0  0  0  0  0  0
    5.8276   -6.8566    0.0000 N   0  0  0  0  0  0  0  0  0  0  0  0
    5.9293   -7.6808    0.0000 N   0  0  0  0  0  0  0  0  0  0  0  0
    6.7446   -7.8390    0.0000 N   0  0  0  0  0  0  0  0  0  0  0  0
    7.1468   -7.1123    0.0000 N   0  0  0  0  0  0  0  0  0  0  0  0
    9.0365   -9.9060    0.0000 C   0  0  0  0  0  0  0  0  0  0  0  0
    8.3179  -10.3171    0.0000 C   0  0  0  0  0  0  0  0  0  0  0  0
    8.3195  -11.1458    0.0000 C   0  0  0  0  0  0  0  0  0  0  0  0
    9.0393  -11.5595    0.0000 C   0  0  0  0  0  0  0  0  0  0  0  0
    9.7591  -11.1386    0.0000 C   0  0  0  0  0  0  0  0  0  0  0  0
    9.7539  -10.3113    0.0000 C   0  0  0  0  0  0  0  0  0  0  0  0
   12.7899   -7.0688    0.0000 C   0  0  0  0  0  0  0  0  0  0  0  0
    9.7498   -7.8307    0.0000 O   0  0  0  0  0  0  0  0  0  0  0  0
    7.6000   -9.9016    0.0000 C   0  0  0  0  0  0  0  0  0  0  0  0
    7.6008   -9.0722    0.0000 O   0  0  0  0  0  0  0  0  0  0  0  0
    6.8812  -10.3156    0.0000 O   0  0  0  0  0  0  0  0  0  0  0  0
  1  2  2  0
  2  3  1  0
  3  4  2  0
  4  5  1  0
  5  6  2  0
  6  1  1  0
  4  7  1  0
  7  8  1  0
  8  9  1  0
  8 10  2  0
  9 11  2  0
 11 12  1  0
 12 13  2  0
 13 14  1  0
 14 15  2  0
 15  9  1  0
  1 16  1  0
 16 17  1  0
 17 18  1  0
 18 19  2  0
 19 20  1  0
 20 21  2  0
 21 17  1  0
 21 22  1  0
 22 23  1  0
 23 24  1  0
 15 25  1  0
 18 26  1  0
 26 27  1  0
 25 28  2  0
 28 29  1  0
 29 30  2  0
 30 31  1  0
 31 25  1  0
 27 32  1  0
 32 33  2  0
 33 34  1  0
 34 35  2  0
 35 36  1  0
 36 37  2  0
 37 32  1  0
 24 38  1  0
 26 39  1  0
 33 40  1  0
 40 41  2  0
 40 42  1  0
M  CHG  2  26   1  39  -1
M  END
>  <From>  (1) 
www.bindingDB.org

>  <BindingDB Reactant_set_id>  (1) 
51183577

>  <Ligand InChI>  (1) 
InChI=1S/C29H28N8O4S/c1-2-3-12-25-31-34-29(42(41)18-20-8-4-5-9-22(20)28(39)40)37(25)17-19-13-15-21(16-14-19)30-27(38)24-11-7-6-10-23(24)26-32-35-36-33-26/h4-11,13-16H,2-3,12,17-18H2,1H3,(H,30,38)(H,39,40)(H,32,33,35,36)

>  <Ligand InChI Key>  (1) 
PKHRTMRWTPFXQK-UHFFFAOYSA-N

>  <BindingDB MonomerID>  (1) 
50486762

>  <BindingDB Ligand Name>  (1) 
CHEMBL2237607

>  <Target Name>  (1) 
Type-1 angiotensin II receptor

>  <Target Source Organism According to Curator or DataSource>  (1) 
Oryctolagus cuniculus

>  <Ki (nM)>  (1) 


>  <IC50 (nM)>  (1) 
 10.0

>  <Kd (nM)>  (1) 


>  <EC50 (nM)>  (1) 


>  <kon (M-1-s-1)>  (1) 


>  <koff (s-1)>  (1) 


>  <pH>  (1) 


>  <Temp C>  (1) 


>  <Curation/DataSource>  (1) 
ChEMBL

>  <Article DOI>  (1) 
10.1007/s00044-011-9756-4

>  <BindingDB Entry DOI>  (1) 
10.7270/Q2833VXQ

>  <PMID>  (1) 


>  <PubChem AID>  (1) 


>  <Patent Number>  (1) 


>  <Authors>  (1) 
n/a

>  <Institution>  (1) 
n/a

>  <Link to Ligand in BindingDB>  (1) 
http://www.bindingdb.org/bind/chemsearch/marvin/MolStructure.jsp?monomerid=50486762

>  <Link to Ligand-Target Pair in BindingDB>  (1) 
http://www.bindingdb.org/jsp/dbsearch/PrimarySearch_ki.jsp?energyterm=kJ/mole&tag=r21&monomerid=50486762&enzyme=Type-1+angiotensin+II+receptor&column=ki&startPg=0&Increment=50&submit=Search

>  <Ligand HET ID in PDB>  (1) 


>  <PDB ID(s) for Ligand-Target Complex>  (1) 


>  <PubChem CID of Ligand>  (1) 
76308179

>  <PubChem SID of Ligand>  (1) 
433954027

>  <ChEBI ID of Ligand>  (1) 


>  <ChEMBL ID of Ligand>  (1) 


>  <DrugBank ID of Ligand>  (1) 


>  <IUPHAR_GRAC ID of Ligand>  (1) 


>  <KEGG ID of Ligand>  (1) 


>  <ZINC ID of Ligand>  (1) 


>  <Number of Protein Chains in Target (bigger than 1 implies a multichain complex)>  (1) 
1

>  <BindingDB Target Chain Sequence>  (1) 
MMLNSSTEDGIKRIQDDCPKAGRHNYIFVMIPTLYSIIFVVGIFGNSLAVIVIYFYMKLKTVASVFLLNLALADLCFLLTLPLWAVYTAMEYRWPFGNYLCKIASASVSFNLYASVFLLTCLSIDRYLAIVHPMKSRLRRTMLVAKVTCIIIWLLAGLASLPAIIHRNVFFIENTNITVCAFHYESQNSTLPIGLGLTKNILGFLFPFLIILTSYTLIWKALKKAYEIQKNKPRNDDIFKIIMAIVLFFFFSWVPHQIFTFLDVLIQLGVIHDCRIADIVDTAMPITICIAYFNNCLNPLFYGFLGKKFKKYFLQLLKYIPPKAKSHSNLSTKMSTLSYRPSDNVSSSSKKPVPCFEVE

>  <PDB ID(s) of Target Chain>  (1) 
6DO1,6OS0,6OS1,6OS2

>  <UniProt (SwissProt) Recommended Name of Target Chain>  (1) 
Type-1 angiotensin II receptor

>  <UniProt (SwissProt) Entry Name of Target Chain>  (1) 
AGTR1_RABIT

>  <UniProt (SwissProt) Primary ID of Target Chain>  (1) 
P34976

>  <UniProt (SwissProt) Secondary ID(s) of Target Chain>  (1) 


>  <UniProt (SwissProt) Alternative ID(s) of Target Chain>  (1) 


>  <UniProt (TrEMBL) Submitted Name of Target Chain>  (1) 


>  <UniProt (TrEMBL) Entry Name of Target Chain>  (1) 


>  <UniProt (TrEMBL) Primary ID of Target Chain>  (1) 


>  <UniProt (TrEMBL) Secondary ID(s) of Target Chain>  (1) 


>  <UniProt (TrEMBL) Alternative ID(s) of Target Chain>  (1) 


$$$$
