
     RDKit          2D

 38 43  0  0  0  0  0  0  0  0999 V2000
    5.2654  -23.5889    0.0000 N   0  0  0  0  0  0  0  0  0  0  0  0
    5.0115  -22.8039    0.0000 C   0  0  0  0  0  0  0  0  0  0  0  0
    4.2068  -22.6285    0.0000 C   0  0  0  0  0  0  0  0  0  0  0  0
    3.6517  -23.2423    0.0000 O   0  0  0  0  0  0  0  0  0  0  0  0
    3.9056  -24.0273    0.0000 C   0  0  0  0  0  0  0  0  0  0  0  0
    4.7103  -24.1986    0.0000 C   0  0  0  0  0  0  0  0  0  0  0  0
    8.0984  -22.8399    0.0000 N   0  0  0  0  0  0  0  0  0  0  0  0
    8.5080  -24.1091    0.0000 C   0  0  0  0  0  0  0  0  0  0  0  0
    8.7638  -23.3270    0.0000 N   0  0  0  0  0  0  0  0  0  0  0  0
    7.6837  -24.1117    0.0000 C   0  0  0  0  0  0  0  0  0  0  0  0
    7.4298  -23.3218    0.0000 C   0  0  0  0  0  0  0  0  0  0  0  0
    6.6209  -23.1505    0.0000 N   0  0  0  0  0  0  0  0  0  0  0  0
    6.0700  -23.7601    0.0000 C   0  0  0  0  0  0  0  0  0  0  0  0
    6.3197  -24.5452    0.0000 C   0  0  0  0  0  0  0  0  0  0  0  0
    7.1286  -24.7206    0.0000 C   0  0  0  0  0  0  0  0  0  0  0  0
    8.1000  -22.0156    0.0000 C   0  0  0  0  0  0  0  0  0  0  0  0
    8.8128  -21.6044    0.0000 C   0  0  0  0  0  0  0  0  0  0  0  0
    8.8146  -20.7836    0.0000 C   0  0  0  0  0  0  0  0  0  0  0  0
    9.5303  -20.3707    0.0000 C   0  0  0  0  0  0  0  0  0  0  0  0
   10.2482  -20.7849    0.0000 C   0  0  0  0  0  0  0  0  0  0  0  0
   10.2476  -21.6122    0.0000 C   0  0  0  0  0  0  0  0  0  0  0  0
    9.5330  -22.0263    0.0000 C   0  0  0  0  0  0  0  0  0  0  0  0
   10.9642  -20.3742    0.0000 C   0  0  0  0  0  0  0  0  0  0  0  0
   10.9648  -19.5534    0.0000 C   0  0  0  0  0  0  0  0  0  0  0  0
   11.6814  -19.1398    0.0000 C   0  0  0  0  0  0  0  0  0  0  0  0
   12.3967  -19.5521    0.0000 C   0  0  0  0  0  0  0  0  0  0  0  0
   12.3951  -20.3819    0.0000 C   0  0  0  0  0  0  0  0  0  0  0  0
   11.6806  -20.7878    0.0000 C   0  0  0  0  0  0  0  0  0  0  0  0
   11.6790  -21.6122    0.0000 C   0  0  0  0  0  0  0  0  0  0  0  0
   12.3474  -22.0957    0.0000 N   0  0  0  0  0  0  0  0  0  0  0  0
   11.0135  -22.1017    0.0000 N   0  0  0  0  0  0  0  0  0  0  0  0
    9.5489  -23.0734    0.0000 C   0  0  0  0  0  0  0  0  0  0  0  0
   10.1583  -23.6287    0.0000 C   0  0  0  0  0  0  0  0  0  0  0  0
    8.9903  -24.7797    0.0000 O   0  0  0  0  0  0  0  0  0  0  0  0
   10.9434  -23.3752    0.0000 C   0  0  0  0  0  0  0  0  0  0  0  0
   11.5528  -23.9305    0.0000 C   0  0  0  0  0  0  0  0  0  0  0  0
   11.2722  -22.8854    0.0000 N   0  0  0  0  0  0  0  0  0  0  0  0
   12.1080  -22.9311    0.0000 N   0  0  0  0  0  0  0  0  0  0  0  0
  1  2  1  0
  1  6  1  0
  2  3  1  0
  3  4  1  0
  4  5  1  0
  5  6  1  0
  7 11  1  0
 10  8  1  0
  8  9  1  0
  9  7  1  0
 10 11  2  0
 10 15  1  0
 11 12  1  0
 12 13  2  0
 13 14  1  0
 14 15  2  0
  7 16  1  0
 16 17  1  0
 17 18  2  0
 18 19  1  0
 19 20  2  0
 20 21  1  0
 21 22  2  0
 22 17  1  0
 23 24  2  0
 24 25  1  0
 25 26  2  0
 26 27  1  0
 27 28  2  0
 28 23  1  0
 20 23  1  0
 28 29  1  0
 29 30  1  0
 37 31  1  0
 31 29  2  0
  9 32  1  0
 32 33  1  0
  8 34  2  0
 33 35  1  0
 35 36  1  0
 13  1  1  0
 30 38  1  0
 38 37  2  0
M  END
>  <From>  (1) 
www.bindingDB.org

>  <BindingDB Reactant_set_id>  (1) 
50867925

>  <Ligand InChI>  (1) 
InChI=1S/C28H30N8O2/c1-2-3-14-35-28(37)24-12-13-25(34-15-17-38-18-16-34)29-27(24)36(35)19-20-8-10-21(11-9-20)22-6-4-5-7-23(22)26-30-32-33-31-26/h4-13H,2-3,14-19H2,1H3,(H,30,31,32,33)

>  <Ligand InChI Key>  (1) 
YQYMBDUFJLSKMW-UHFFFAOYSA-N

>  <BindingDB MonomerID>  (1) 
50376915

>  <BindingDB Ligand Name>  (1) 
CHEMBL427738

>  <Target Name>  (1) 
Type-1 angiotensin II receptor A

>  <Target Source Organism According to Curator or DataSource>  (1) 
Rattus

>  <Ki (nM)>  (1) 


>  <IC50 (nM)>  (1) 
 600

>  <Kd (nM)>  (1) 


>  <EC50 (nM)>  (1) 


>  <kon (M-1-s-1)>  (1) 


>  <koff (s-1)>  (1) 


>  <pH>  (1) 


>  <Temp C>  (1) 


>  <Curation/DataSource>  (1) 
ChEMBL

>  <Article DOI>  (1) 
10.1021/jm7011563

>  <BindingDB Entry DOI>  (1) 
10.7270/Q20P10X0

>  <PMID>  (1) 
18318468

>  <PubChem AID>  (1) 


>  <Patent Number>  (1) 


>  <Authors>  (1) 
Cappelli, A; Nannicini, C; Gallelli, A; Giuliani, G; Valenti, S; Mohr, Gl; Anzini, M; Mennuni, L; Ferrari, F; Caselli, G; Giordani, A; Peris, W; Makovec, F; Giorgi, G; Vomero, S

>  <Institution>  (1) 
Universit&#163; di Siena

>  <Link to Ligand in BindingDB>  (1) 
http://www.bindingdb.org/bind/chemsearch/marvin/MolStructure.jsp?monomerid=50376915

>  <Link to Ligand-Target Pair in BindingDB>  (1) 
http://www.bindingdb.org/jsp/dbsearch/PrimarySearch_ki.jsp?energyterm=kJ/mole&tag=r21&monomerid=50376915&enzyme=Type-1+angiotensin+II+receptor+A&column=ki&startPg=0&Increment=50&submit=Search

>  <Ligand HET ID in PDB>  (1) 


>  <PDB ID(s) for Ligand-Target Complex>  (1) 


>  <PubChem CID of Ligand>  (1) 
24828034

>  <PubChem SID of Ligand>  (1) 
160855998

>  <ChEBI ID of Ligand>  (1) 


>  <ChEMBL ID of Ligand>  (1) 
CHEMBL427738

>  <DrugBank ID of Ligand>  (1) 


>  <IUPHAR_GRAC ID of Ligand>  (1) 


>  <KEGG ID of Ligand>  (1) 


>  <ZINC ID of Ligand>  (1) 
ZINC29050969

>  <Number of Protein Chains in Target (bigger than 1 implies a multichain complex)>  (1) 
1

>  <BindingDB Target Chain Sequence>  (1) 
MALNSSAEDGIKRIQDDCPKAGRHSYIFVMIPTLYSIIFVVGIFGNSLVVIVIYFYMKLKTVASVFLLNLALADLCFLLTLPLWAVYTAMEYRWPFGNHLCKIASASVSFNLYASVFLLTCLSIDRYLAIVHPMKSRLRRTMLVAKVTCIIIWLMAGLASLPAVIHRNVYFIENTNITVCAFHYESRNSTLPIGLGLTKNILGFLFPFLIILTSYTLIWKALKKAYEIQKNKPRNDDIFRIIMAIVLFFFFSWVPHQIFTFLDVLIQLGVIHDCKISDIVDTAMPITICIAYFNNCLNPLFYGFLGKKFKKYFLQLLKYIPPKAKSHSSLSTKMSTLSYRPSDNMSSSAKKPASCFEVE

>  <PDB ID(s) of Target Chain>  (1) 


>  <UniProt (SwissProt) Recommended Name of Target Chain>  (1) 
Type-1 angiotensin II receptor A

>  <UniProt (SwissProt) Entry Name of Target Chain>  (1) 
AGTRA_RAT

>  <UniProt (SwissProt) Primary ID of Target Chain>  (1) 
P25095

>  <UniProt (SwissProt) Secondary ID(s) of Target Chain>  (1) 
Q9QVS5

>  <UniProt (SwissProt) Alternative ID(s) of Target Chain>  (1) 


>  <UniProt (TrEMBL) Submitted Name of Target Chain>  (1) 


>  <UniProt (TrEMBL) Entry Name of Target Chain>  (1) 


>  <UniProt (TrEMBL) Primary ID of Target Chain>  (1) 


>  <UniProt (TrEMBL) Secondary ID(s) of Target Chain>  (1) 


>  <UniProt (TrEMBL) Alternative ID(s) of Target Chain>  (1) 


$$$$
