
     RDKit          2D

 41 45  0  0  1  0  0  0  0  0999 V2000
    7.2296   -2.5934    0.0000 N   0  0  0  0  0  0  0  0  0  0  0  0
    7.8925   -3.0812    0.0000 C   0  0  0  0  0  0  0  0  0  0  0  0
    6.8043   -3.8567    0.0000 N   0  0  0  0  0  0  0  0  0  0  0  0
    2.5183    0.2251    0.0000 N   0  0  0  0  0  0  0  0  0  0  0  0
    6.5584   -3.0687    0.0000 C   0  0  0  0  0  0  0  0  0  0  0  0
    7.6216   -3.8650    0.0000 C   0  0  0  0  0  0  0  0  0  0  0  0
    3.1812    0.7088    0.0000 C   0  0  0  0  0  0  0  0  0  0  0  0
    2.5183   -1.7886    0.0000 C   0  0  0  0  0  0  0  0  0  0  0  0
    3.2313   -2.2014    0.0000 C   0  0  0  0  0  0  0  0  0  0  0  0
    8.6931   -2.9186    0.0000 N   0  0  0  0  0  0  0  0  0  0  0  0
    3.9692    0.4586    0.0000 C   0  0  0  0  0  0  0  0  0  0  0  0
    8.1677   -4.4821    0.0000 C   0  0  0  0  0  0  0  0  0  0  0  0
    3.9442   -1.7886    0.0000 N   0  0  0  0  0  0  0  0  0  0  0  0
    7.2338   -1.7678    0.0000 C   0  0  0  0  0  0  0  0  0  0  0  0
    1.8429    0.7088    0.0000 C   0  0  0  0  0  0  0  0  0  0  0  0
    2.9311    1.4968    0.0000 C   0  0  0  0  0  0  0  0  0  0  0  0
    9.2351   -3.5315    0.0000 C   0  0  0  0  0  0  0  0  0  0  0  0
    2.1055    1.4968    0.0000 C   0  0  0  0  0  0  0  0  0  0  0  0
    1.8012   -2.2014    0.0000 C   0  0  0  0  0  0  0  0  0  0  0  0
    8.9724   -4.3195    0.0000 C   0  0  0  0  0  0  0  0  0  0  0  0
    3.2313   -3.0269    0.0000 O   0  0  0  0  0  0  0  0  0  0  0  0
    4.5821    1.0089    0.0000 O   0  0  0  0  0  0  0  0  0  0  0  0
    4.7697   -1.7803    0.0000 C   0  0  0  0  0  0  0  0  0  0  0  0
    6.4083   -1.7761    0.0000 C   0  0  0  0  0  0  0  0  0  0  0  0
    4.1443   -0.3544    0.0000 O   0  0  0  0  0  0  0  0  0  0  0  0
    5.7704   -2.8143    0.0000 C   0  0  0  0  0  0  0  0  0  0  0  0
    1.0882   -1.7886    0.0000 C   0  0  0  0  0  0  0  0  0  0  0  0
    5.1783   -2.4933    0.0000 C   0  0  0  0  0  0  0  0  0  0  0  0
    5.1700   -1.0674    0.0000 C   0  0  0  0  0  0  0  0  0  0  0  0
    5.9913   -1.0632    0.0000 C   0  0  0  0  0  0  0  0  0  0  0  0
    5.9955   -2.4891    0.0000 C   0  0  0  0  0  0  0  0  0  0  0  0
    7.9051   -5.2576    0.0000 C   0  0  0  0  0  0  0  0  0  0  0  0
   10.0439   -3.3689    0.0000 C   0  0  0  0  0  0  0  0  0  0  0  0
    1.0882   -0.9548    0.0000 C   0  0  0  0  0  0  0  0  0  0  0  0
    0.3752   -2.1931    0.0000 C   0  0  0  0  0  0  0  0  0  0  0  0
    5.1575   -3.3563    0.0000 C   0  0  0  0  0  0  0  0  0  0  0  0
    4.3695   -3.0937    0.0000 C   0  0  0  0  0  0  0  0  0  0  0  0
    3.7524   -3.6440    0.0000 C   0  0  0  0  0  0  0  0  0  0  0  0
   -0.3377   -1.7886    0.0000 C   0  0  0  0  0  0  0  0  0  0  0  0
    0.3752   -0.5420    0.0000 C   0  0  0  0  0  0  0  0  0  0  0  0
   -0.3460   -0.9548    0.0000 C   0  0  0  0  0  0  0  0  0  0  0  0
  2  1  1  0
  3  5  2  0
  8  4  1  0
  5  1  1  0
  6  2  2  0
  7  4  1  0
  8  9  1  0
  9 13  1  0
 10  2  1  0
 11  7  1  0
 12  6  1  0
 13 23  1  0
 14  1  1  0
 15  4  1  0
 16  7  2  0
 17 10  2  0
 18 15  2  0
  8 19  1  6
 20 17  1  0
 21  9  2  0
 22 11  2  0
 23 28  2  0
 24 14  1  0
 25 11  1  0
 26  5  1  0
 27 19  1  0
 28 31  1  0
 29 30  2  0
 30 24  1  0
 31 24  2  0
 32 12  1  0
 33 17  1  0
 34 27  2  0
 35 27  1  0
 36 26  1  0
 37 36  1  0
 38 37  1  0
 39 35  2  0
 40 34  1  0
 41 39  1  0
  3  6  1  0
 29 23  1  0
 12 20  2  0
 16 18  1  0
 40 41  2  0
M  END
>  <From>  (1) 
www.bindingDB.org

>  <BindingDB Reactant_set_id>  (1) 
50077583

>  <Ligand InChI>  (1) 
InChI=1S/C33H35N5O3/c1-4-5-13-29-36-30-22(2)19-23(3)34-31(30)38(29)21-25-14-16-26(17-15-25)35-32(39)28(20-24-10-7-6-8-11-24)37-18-9-12-27(37)33(40)41/h6-12,14-19,28H,4-5,13,20-21H2,1-3H3,(H,35,39)(H,40,41)/t28-/m0/s1

>  <Ligand InChI Key>  (1) 
JFFFWDJPJJEHDO-NDEPHWFRSA-N

>  <BindingDB MonomerID>  (1) 
50047938

>  <BindingDB Ligand Name>  (1) 
1-{1-[4-(2-Butyl-5,7-dimethyl-imidazo[4,5-b]pyridin-3-ylmethyl)-phenylcarbamoyl]-2-phenyl-ethyl}-1H-pyrrole-2-carboxylic acid::CHEMBL48363

>  <Target Name>  (1) 
Type-1 angiotensin II receptor B

>  <Target Source Organism According to Curator or DataSource>  (1) 
Rattus

>  <Ki (nM)>  (1) 


>  <IC50 (nM)>  (1) 
 60

>  <Kd (nM)>  (1) 


>  <EC50 (nM)>  (1) 


>  <kon (M-1-s-1)>  (1) 


>  <koff (s-1)>  (1) 


>  <pH>  (1) 


>  <Temp C>  (1) 


>  <Curation/DataSource>  (1) 
ChEMBL

>  <Article DOI>  (1) 
10.1021/jm00064a007

>  <BindingDB Entry DOI>  (1) 
10.7270/Q28W3CCP

>  <PMID>  (1) 
8510101

>  <PubChem AID>  (1) 


>  <Patent Number>  (1) 


>  <Authors>  (1) 
Sircar, I; Winters, RT; Quin, J; Lu, GH; Major, TC; Panek, RL

>  <Institution>  (1) 
Warner-Lambert Company

>  <Link to Ligand in BindingDB>  (1) 
http://www.bindingdb.org/bind/chemsearch/marvin/MolStructure.jsp?monomerid=50047938

>  <Link to Ligand-Target Pair in BindingDB>  (1) 
http://www.bindingdb.org/jsp/dbsearch/PrimarySearch_ki.jsp?energyterm=kJ/mole&tag=r21&monomerid=50047938&enzyme=Type-1+angiotensin+II+receptor+B&column=ki&startPg=0&Increment=50&submit=Search

>  <Ligand HET ID in PDB>  (1) 


>  <PDB ID(s) for Ligand-Target Complex>  (1) 


>  <PubChem CID of Ligand>  (1) 
44293815

>  <PubChem SID of Ligand>  (1) 
103978502

>  <ChEBI ID of Ligand>  (1) 


>  <ChEMBL ID of Ligand>  (1) 
CHEMBL48363

>  <DrugBank ID of Ligand>  (1) 


>  <IUPHAR_GRAC ID of Ligand>  (1) 


>  <KEGG ID of Ligand>  (1) 


>  <ZINC ID of Ligand>  (1) 
ZINC29468067

>  <Number of Protein Chains in Target (bigger than 1 implies a multichain complex)>  (1) 
1

>  <BindingDB Target Chain Sequence>  (1) 
MTLNSSTEDGIKRIQDDCPKAGRHNYIFVMIPTLYSIIFVVGIFGNSLVVIVIYFYMKLKTVASVFLLNLALADLCFLLTLPLWAVYTAMEYRWPFGNHLCKIASASVSFNLYASVFLLTCLSIDRYLAIVHPMKSRLRRTMLVAKVTCIIIWLMAGLASLPAVIYRNVYFIENTNITVCAFHYESQNSTLPIGLGLTKNILGFVFPFLIILTSYTLIWKALKKAYKIQKNTPRNDDIFRIIMAIVLFFFFSWVPHQIFTFLDVLIQLGIIRDCEIADIVDTAMPITICIAYFNNCLNPLFYGFLGKKFKKYFLQLLKYIPPTAKSHAGLSTKMSTLSYRPSDNMSSSAKKSASFFEVE

>  <PDB ID(s) of Target Chain>  (1) 


>  <UniProt (SwissProt) Recommended Name of Target Chain>  (1) 
Type-1 angiotensin II receptor B

>  <UniProt (SwissProt) Entry Name of Target Chain>  (1) 
AGTRB_RAT

>  <UniProt (SwissProt) Primary ID of Target Chain>  (1) 
P29089

>  <UniProt (SwissProt) Secondary ID(s) of Target Chain>  (1) 


>  <UniProt (SwissProt) Alternative ID(s) of Target Chain>  (1) 


>  <UniProt (TrEMBL) Submitted Name of Target Chain>  (1) 


>  <UniProt (TrEMBL) Entry Name of Target Chain>  (1) 


>  <UniProt (TrEMBL) Primary ID of Target Chain>  (1) 


>  <UniProt (TrEMBL) Secondary ID(s) of Target Chain>  (1) 


>  <UniProt (TrEMBL) Alternative ID(s) of Target Chain>  (1) 


$$$$
