
     RDKit          2D

 40 42  0  0  0  0  0  0  0  0999 V2000
   20.4415  -12.5207    0.0000 N   0  0  0  0  0  0  0  0  0  0  0  0
   19.7681  -13.0074    0.0000 C   0  0  0  0  0  0  0  0  0  0  0  0
   20.0247  -13.7957    0.0000 N   0  0  0  0  0  0  0  0  0  0  0  0
   20.8539  -13.7957    0.0000 C   0  0  0  0  0  0  0  0  0  0  0  0
   21.1110  -13.0072    0.0000 C   0  0  0  0  0  0  0  0  0  0  0  0
   19.0629  -12.5780    0.0000 C   0  0  0  0  0  0  0  0  0  0  0  0
   19.0829  -11.7533    0.0000 C   0  0  0  0  0  0  0  0  0  0  0  0
   18.3787  -11.3237    0.0000 C   0  0  0  0  0  0  0  0  0  0  0  0
   18.3987  -10.4989    0.0000 C   0  0  0  0  0  0  0  0  0  0  0  0
   20.4426  -11.6957    0.0000 C   0  0  0  0  0  0  0  0  0  0  0  0
   21.1576  -11.2843    0.0000 C   0  0  0  0  0  0  0  0  0  0  0  0
   21.8704  -11.6998    0.0000 C   0  0  0  0  0  0  0  0  0  0  0  0
   22.5849  -11.2890    0.0000 C   0  0  0  0  0  0  0  0  0  0  0  0
   22.5866  -10.4631    0.0000 C   0  0  0  0  0  0  0  0  0  0  0  0
   21.8677  -10.0498    0.0000 C   0  0  0  0  0  0  0  0  0  0  0  0
   21.1561  -10.4629    0.0000 C   0  0  0  0  0  0  0  0  0  0  0  0
   21.8671  -12.6771    0.0000 C   0  0  0  0  0  0  0  0  0  0  0  0
   22.5310  -13.1669    0.0000 C   0  0  0  0  0  0  0  0  0  0  0  0
   22.5265  -13.9917    0.0000 N   0  0  0  0  0  0  0  0  0  0  0  0
   23.3093  -14.2522    0.0000 C   0  0  0  0  0  0  0  0  0  0  0  0
   23.7990  -13.5883    0.0000 N   0  0  0  0  0  0  0  0  0  0  0  0
   23.3189  -12.9174    0.0000 C   0  0  0  0  0  0  0  0  0  0  0  0
   23.5584  -15.0387    0.0000 O   0  0  0  0  0  0  0  0  0  0  0  0
   23.5795  -12.1347    0.0000 O   0  0  0  0  0  0  0  0  0  0  0  0
   21.8278  -14.4303    0.0000 C   0  0  0  0  0  0  0  0  0  0  0  0
   21.8582  -15.2547    0.0000 C   0  0  0  0  0  0  0  0  0  0  0  0
   21.1595  -15.6934    0.0000 C   0  0  0  0  0  0  0  0  0  0  0  0
   20.4303  -15.3075    0.0000 C   0  0  0  0  0  0  0  0  0  0  0  0
   23.3011  -10.0507    0.0000 S   0  0  0  0  0  0  0  0  0  0  0  0
   24.0156  -10.4633    0.0000 N   0  0  0  0  0  0  0  0  0  0  0  0
   23.8831   -9.4624    0.0000 O   0  0  0  0  0  0  0  0  0  0  0  0
   22.7122   -9.4624    0.0000 O   0  0  0  0  0  0  0  0  0  0  0  0
   24.7300  -10.0509    0.0000 C   0  0  0  0  0  0  0  0  0  0  0  0
   25.4445  -10.4634    0.0000 F   0  0  0  0  0  0  0  0  0  0  0  0
   24.7301   -9.2259    0.0000 F   0  0  0  0  0  0  0  0  0  0  0  0
   25.3122   -9.4624    0.0000 F   0  0  0  0  0  0  0  0  0  0  0  0
   24.6240  -13.5942    0.0000 C   0  0  0  0  0  0  0  0  0  0  0  0
   25.0314  -14.3116    0.0000 C   0  0  0  0  0  0  0  0  0  0  0  0
   25.8564  -14.3176    0.0000 C   0  0  0  0  0  0  0  0  0  0  0  0
   26.2637  -15.0349    0.0000 C   0  0  0  0  0  0  0  0  0  0  0  0
  2  3  2  0
  1  2  1  0
  3  4  1  0
  4  5  2  0
  5  1  1  0
  2  6  1  0
  6  7  1  0
  7  8  1  0
  8  9  1  0
  1 10  1  0
 10 11  1  0
 11 12  2  0
 12 13  1  0
 13 14  2  0
 14 15  1  0
 15 16  2  0
 16 11  1  0
  5 17  1  0
 17 18  2  0
 18 19  1  0
 19 20  1  0
 20 21  1  0
 21 22  1  0
 22 18  1  0
 20 23  2  0
 22 24  2  0
 19 25  1  0
 25 26  1  0
 26 27  1  0
 27 28  1  0
 14 29  1  0
 29 30  1  0
 29 31  2  0
 29 32  2  0
 30 33  1  0
 33 34  1  0
 33 35  1  0
 33 36  1  0
 21 37  1  0
 37 38  1  0
 38 39  1  0
 39 40  1  0
M  END
>  <From>  (1) 
www.bindingDB.org

>  <BindingDB Reactant_set_id>  (1) 
51186086

>  <Ligand InChI>  (1) 
InChI=1S/C27H36F3N5O4S/c1-4-7-10-24-31-18-21(17-23-25(36)34(16-9-6-3)26(37)33(23)15-8-5-2)35(24)19-20-11-13-22(14-12-20)40(38,39)32-27(28,29)30/h11-14,17-18,32H,4-10,15-16,19H2,1-3H3/b23-17-

>  <Ligand InChI Key>  (1) 
BPICHWHEATXJIM-QJOMJCCJSA-N

>  <BindingDB MonomerID>  (1) 
50487704

>  <BindingDB Ligand Name>  (1) 
CHEMBL2259777

>  <Target Name>  (1) 
Type-1 angiotensin II receptor

>  <Target Source Organism According to Curator or DataSource>  (1) 
Homo sapiens

>  <Ki (nM)>  (1) 


>  <IC50 (nM)>  (1) 
 30

>  <Kd (nM)>  (1) 


>  <EC50 (nM)>  (1) 


>  <kon (M-1-s-1)>  (1) 


>  <koff (s-1)>  (1) 


>  <pH>  (1) 


>  <Temp C>  (1) 


>  <Curation/DataSource>  (1) 
ChEMBL

>  <Article DOI>  (1) 
10.1007/s00044-009-9205-9

>  <BindingDB Entry DOI>  (1) 
10.7270/Q2CC13K2

>  <PMID>  (1) 


>  <PubChem AID>  (1) 


>  <Patent Number>  (1) 


>  <Authors>  (1) 
n/a

>  <Institution>  (1) 
n/a

>  <Link to Ligand in BindingDB>  (1) 
http://www.bindingdb.org/bind/chemsearch/marvin/MolStructure.jsp?monomerid=50487704

>  <Link to Ligand-Target Pair in BindingDB>  (1) 
http://www.bindingdb.org/jsp/dbsearch/PrimarySearch_ki.jsp?energyterm=kJ/mole&tag=r21&monomerid=50487704&enzyme=Type-1+angiotensin+II+receptor&column=ki&startPg=0&Increment=50&submit=Search

>  <Ligand HET ID in PDB>  (1) 


>  <PDB ID(s) for Ligand-Target Complex>  (1) 


>  <PubChem CID of Ligand>  (1) 
76333686

>  <PubChem SID of Ligand>  (1) 
433954969

>  <ChEBI ID of Ligand>  (1) 


>  <ChEMBL ID of Ligand>  (1) 


>  <DrugBank ID of Ligand>  (1) 


>  <IUPHAR_GRAC ID of Ligand>  (1) 


>  <KEGG ID of Ligand>  (1) 


>  <ZINC ID of Ligand>  (1) 


>  <Number of Protein Chains in Target (bigger than 1 implies a multichain complex)>  (1) 
1

>  <BindingDB Target Chain Sequence>  (1) 
MILNSSTEDGIKRIQDDCPKAGRHNYIFVMIPTLYSIIFVVGIFGNSLVVIVIYFYMKLKTVASVFLLNLALADLCFLLTLPLWAVYTAMEYRWPFGNYLCKIASASVSFNLYASVFLLTCLSIDRYLAIVHPMKSRLRRTMLVAKVTCIIIWLLAGLASLPAIIHRNVFFIENTNITVCAFHYESQNSTLPIGLGLTKNILGFLFPFLIILTSYTLIWKALKKAYEIQKNKPRNDDIFKIIMAIVLFFFFSWIPHQIFTFLDVLIQLGIIRDCRIADIVDTAMPITICIAYFNNCLNPLFYGFLGKKFKRYFLQLLKYIPPKAKSHSNLSTKMSTLSYRPSDNVSSSTKKPAPCFEVE

>  <PDB ID(s) of Target Chain>  (1) 
6DO1,6OS0,6OS1,6OS2

>  <UniProt (SwissProt) Recommended Name of Target Chain>  (1) 
Type-1 angiotensin II receptor

>  <UniProt (SwissProt) Entry Name of Target Chain>  (1) 
AGTR1_HUMAN

>  <UniProt (SwissProt) Primary ID of Target Chain>  (1) 
P30556

>  <UniProt (SwissProt) Secondary ID(s) of Target Chain>  (1) 
Q13725 Q8TBK4

>  <UniProt (SwissProt) Alternative ID(s) of Target Chain>  (1) 


>  <UniProt (TrEMBL) Submitted Name of Target Chain>  (1) 


>  <UniProt (TrEMBL) Entry Name of Target Chain>  (1) 


>  <UniProt (TrEMBL) Primary ID of Target Chain>  (1) 


>  <UniProt (TrEMBL) Secondary ID(s) of Target Chain>  (1) 


>  <UniProt (TrEMBL) Alternative ID(s) of Target Chain>  (1) 


$$$$
