
     RDKit          2D

 38 42  0  0  0  0  0  0  0  0999 V2000
    6.9953   -9.1609    0.0000 N   0  0  0  0  0  0  0  0  0  0  0  0
    7.6542   -9.6480    0.0000 C   0  0  0  0  0  0  0  0  0  0  0  0
    7.4078  -10.4386    0.0000 C   0  0  0  0  0  0  0  0  0  0  0  0
    6.3250   -9.6480    0.0000 N   0  0  0  0  0  0  0  0  0  0  0  0
    7.1901   -8.3589    0.0000 C   0  0  0  0  0  0  0  0  0  0  0  0
    6.5828  -10.4386    0.0000 C   0  0  0  0  0  0  0  0  0  0  0  0
   11.2922   -9.5906    0.0000 C   0  0  0  0  0  0  0  0  0  0  0  0
   10.8855   -8.3187    0.0000 N   0  0  0  0  0  0  0  0  0  0  0  0
   10.6276   -9.0980    0.0000 N   0  0  0  0  0  0  0  0  0  0  0  0
   11.7105   -8.3245    0.0000 N   0  0  0  0  0  0  0  0  0  0  0  0
   11.9625   -9.1094    0.0000 N   0  0  0  0  0  0  0  0  0  0  0  0
    8.4448   -9.3901    0.0000 C   0  0  0  0  0  0  0  0  0  0  0  0
   11.5730  -10.3698    0.0000 C   0  0  0  0  0  0  0  0  0  0  0  0
    6.6058   -7.7917    0.0000 C   0  0  0  0  0  0  0  0  0  0  0  0
   11.1776  -11.0917    0.0000 C   0  0  0  0  0  0  0  0  0  0  0  0
    7.8891  -11.1031    0.0000 C   0  0  0  0  0  0  0  0  0  0  0  0
    7.9808   -8.1355    0.0000 C   0  0  0  0  0  0  0  0  0  0  0  0
    6.7948   -7.0011    0.0000 C   0  0  0  0  0  0  0  0  0  0  0  0
   10.3526  -11.0917    0.0000 C   0  0  0  0  0  0  0  0  0  0  0  0
    9.2355   -9.7855    0.0000 O   0  0  0  0  0  0  0  0  0  0  0  0
    9.9344  -10.3870    0.0000 C   0  0  0  0  0  0  0  0  0  0  0  0
    9.9401  -11.8078    0.0000 C   0  0  0  0  0  0  0  0  0  0  0  0
    7.5855   -6.7719    0.0000 C   0  0  0  0  0  0  0  0  0  0  0  0
    5.7980   -7.9980    0.0000 Cl  0  0  0  0  0  0  0  0  0  0  0  0
    8.7141  -11.0917    0.0000 C   0  0  0  0  0  0  0  0  0  0  0  0
    8.6167   -8.5823    0.0000 O   0  0  0  0  0  0  0  0  0  0  0  0
    8.1812   -7.3448    0.0000 C   0  0  0  0  0  0  0  0  0  0  0  0
    9.1151  -10.3870    0.0000 C   0  0  0  0  0  0  0  0  0  0  0  0
    9.1151  -11.8136    0.0000 C   0  0  0  0  0  0  0  0  0  0  0  0
    7.8031   -5.9698    0.0000 Cl  0  0  0  0  0  0  0  0  0  0  0  0
    6.0901  -11.1031    0.0000 C   0  0  0  0  0  0  0  0  0  0  0  0
   12.3980  -10.3698    0.0000 C   0  0  0  0  0  0  0  0  0  0  0  0
   11.5901  -11.8078    0.0000 C   0  0  0  0  0  0  0  0  0  0  0  0
    5.2651  -11.0917    0.0000 C   0  0  0  0  0  0  0  0  0  0  0  0
    4.8469  -11.7964    0.0000 C   0  0  0  0  0  0  0  0  0  0  0  0
   12.4151  -11.7964    0.0000 C   0  0  0  0  0  0  0  0  0  0  0  0
   12.8219  -11.0859    0.0000 C   0  0  0  0  0  0  0  0  0  0  0  0
    4.0219  -11.7964    0.0000 C   0  0  0  0  0  0  0  0  0  0  0  0
  2  1  1  0
  3  2  2  0
  4  1  1  0
  5  1  1  0
  6  4  2  0
  7 13  1  0
  8  9  1  0
  9  7  1  0
 10 11  1  0
 11  7  2  0
 12  2  1  0
 13 15  1  0
 14  5  2  0
 15 19  1  0
 16  3  1  0
 17  5  1  0
 18 14  1  0
 19 22  2  0
 20 12  2  0
 21 28  2  0
 22 29  1  0
 23 27  1  0
 24 14  1  0
 25 16  1  0
 26 12  1  0
 27 17  2  0
 28 25  1  0
 29 25  2  0
 30 23  1  0
 31  6  1  0
 32 13  2  0
 33 15  2  0
 34 31  1  0
 35 34  1  0
 36 33  1  0
 37 36  2  0
 38 35  1  0
  3  6  1  0
 18 23  2  0
 19 21  1  0
 37 32  1  0
  8 10  2  0
M  END
>  <From>  (1) 
www.bindingDB.org

>  <BindingDB Reactant_set_id>  (1) 
50061786

>  <Ligand InChI>  (1) 
InChI=1S/C28H24Cl2N6O2/c1-2-3-8-24-22(26(28(37)38)36(33-24)25-14-13-19(29)16-23(25)30)15-17-9-11-18(12-10-17)20-6-4-5-7-21(20)27-31-34-35-32-27/h4-7,9-14,16H,2-3,8,15H2,1H3,(H,37,38)(H,31,32,34,35)

>  <Ligand InChI Key>  (1) 
ZMIPXYJMLBJAOL-UHFFFAOYSA-N

>  <BindingDB MonomerID>  (1) 
50042543

>  <BindingDB Ligand Name>  (1) 
5-Butyl-2-(2,4-dichloro-phenyl)-4-[2'-(1H-tetrazol-5-yl)-biphenyl-4-ylmethyl]-2H-pyrazole-3-carboxylic acid::CHEMBL92472

>  <Target Name>  (1) 
Type-1 angiotensin II receptor

>  <Target Source Organism According to Curator or DataSource>  (1) 
Oryctolagus cuniculus

>  <Ki (nM)>  (1) 


>  <IC50 (nM)>  (1) 
 0.600000

>  <Kd (nM)>  (1) 


>  <EC50 (nM)>  (1) 


>  <kon (M-1-s-1)>  (1) 


>  <koff (s-1)>  (1) 


>  <pH>  (1) 


>  <Temp C>  (1) 


>  <Curation/DataSource>  (1) 
ChEMBL

>  <Article DOI>  (1) 
10.1021/jm00075a014

>  <BindingDB Entry DOI>  (1) 
10.7270/Q25Q4V5H

>  <PMID>  (1) 
8246227

>  <PubChem AID>  (1) 


>  <Patent Number>  (1) 


>  <Authors>  (1) 
Ashton, WT; Hutchins, SM; Greenlee, WJ; Doss, GA; Chang, RS; Lotti, VJ; Faust, KA; Chen, TB; Zingaro, GJ; Kivlighn, SD

>  <Institution>  (1) 
Merck Research Laboratories

>  <Link to Ligand in BindingDB>  (1) 
http://www.bindingdb.org/bind/chemsearch/marvin/MolStructure.jsp?monomerid=50042543

>  <Link to Ligand-Target Pair in BindingDB>  (1) 
http://www.bindingdb.org/jsp/dbsearch/PrimarySearch_ki.jsp?energyterm=kJ/mole&tag=r21&monomerid=50042543&enzyme=Type-1+angiotensin+II+receptor&column=ki&startPg=0&Increment=50&submit=Search

>  <Ligand HET ID in PDB>  (1) 


>  <PDB ID(s) for Ligand-Target Complex>  (1) 


>  <PubChem CID of Ligand>  (1) 
14971702

>  <PubChem SID of Ligand>  (1) 
103974139

>  <ChEBI ID of Ligand>  (1) 


>  <ChEMBL ID of Ligand>  (1) 
CHEMBL92472

>  <DrugBank ID of Ligand>  (1) 


>  <IUPHAR_GRAC ID of Ligand>  (1) 


>  <KEGG ID of Ligand>  (1) 


>  <ZINC ID of Ligand>  (1) 
ZINC26663601

>  <Number of Protein Chains in Target (bigger than 1 implies a multichain complex)>  (1) 
1

>  <BindingDB Target Chain Sequence>  (1) 
MMLNSSTEDGIKRIQDDCPKAGRHNYIFVMIPTLYSIIFVVGIFGNSLAVIVIYFYMKLKTVASVFLLNLALADLCFLLTLPLWAVYTAMEYRWPFGNYLCKIASASVSFNLYASVFLLTCLSIDRYLAIVHPMKSRLRRTMLVAKVTCIIIWLLAGLASLPAIIHRNVFFIENTNITVCAFHYESQNSTLPIGLGLTKNILGFLFPFLIILTSYTLIWKALKKAYEIQKNKPRNDDIFKIIMAIVLFFFFSWVPHQIFTFLDVLIQLGVIHDCRIADIVDTAMPITICIAYFNNCLNPLFYGFLGKKFKKYFLQLLKYIPPKAKSHSNLSTKMSTLSYRPSDNVSSSSKKPVPCFEVE

>  <PDB ID(s) of Target Chain>  (1) 
6DO1,6OS0,6OS1,6OS2

>  <UniProt (SwissProt) Recommended Name of Target Chain>  (1) 
Type-1 angiotensin II receptor

>  <UniProt (SwissProt) Entry Name of Target Chain>  (1) 
AGTR1_RABIT

>  <UniProt (SwissProt) Primary ID of Target Chain>  (1) 
P34976

>  <UniProt (SwissProt) Secondary ID(s) of Target Chain>  (1) 


>  <UniProt (SwissProt) Alternative ID(s) of Target Chain>  (1) 


>  <UniProt (TrEMBL) Submitted Name of Target Chain>  (1) 


>  <UniProt (TrEMBL) Entry Name of Target Chain>  (1) 


>  <UniProt (TrEMBL) Primary ID of Target Chain>  (1) 


>  <UniProt (TrEMBL) Secondary ID(s) of Target Chain>  (1) 


>  <UniProt (TrEMBL) Alternative ID(s) of Target Chain>  (1) 


$$$$
