 
     RDKit          2D

 29 32  0  0  0  0  0  0  0  0999 V2000
   19.7328  -17.1260    0.0000 C   0  0  0  0  0  0  0  0  0  0  0  0
   19.7315  -17.9540    0.0000 C   0  0  0  0  0  0  0  0  0  0  0  0
   20.4423  -18.3670    0.0000 C   0  0  0  0  0  0  0  0  0  0  0  0
   20.4401  -16.7132    0.0000 C   0  0  0  0  0  0  0  0  0  0  0  0
   21.1614  -17.1264    0.0000 C   0  0  0  0  0  0  0  0  0  0  0  0
   21.1621  -17.9540    0.0000 C   0  0  0  0  0  0  0  0  0  0  0  0
   21.9498  -18.2133    0.0000 N   0  0  0  0  0  0  0  0  0  0  0  0
   22.4415  -17.5369    0.0000 C   0  0  0  0  0  0  0  0  0  0  0  0
   21.9489  -16.8660    0.0000 N   0  0  0  0  0  0  0  0  0  0  0  0
   23.2620  -17.5406    0.0000 C   0  0  0  0  0  0  0  0  0  0  0  0
   22.2079  -18.9983    0.0000 C   0  0  0  0  0  0  0  0  0  0  0  0
   21.6560  -19.6091    0.0000 C   0  0  0  0  0  0  0  0  0  0  0  0
   20.8479  -19.4353    0.0000 C   0  0  0  0  0  0  0  0  0  0  0  0
   20.2965  -20.0496    0.0000 C   0  0  0  0  0  0  0  0  0  0  0  0
   20.5544  -20.8358    0.0000 C   0  0  0  0  0  0  0  0  0  0  0  0
   21.3649  -21.0038    0.0000 C   0  0  0  0  0  0  0  0  0  0  0  0
   21.9127  -20.3878    0.0000 C   0  0  0  0  0  0  0  0  0  0  0  0
   20.0056  -21.4470    0.0000 C   0  0  0  0  0  0  0  0  0  0  0  0
   19.1945  -21.2767    0.0000 C   0  0  0  0  0  0  0  0  0  0  0  0
   18.6485  -21.8918    0.0000 C   0  0  0  0  0  0  0  0  0  0  0  0
   18.9028  -22.6730    0.0000 C   0  0  0  0  0  0  0  0  0  0  0  0
   19.7137  -22.8444    0.0000 C   0  0  0  0  0  0  0  0  0  0  0  0
   20.2604  -22.2278    0.0000 C   0  0  0  0  0  0  0  0  0  0  0  0
   21.0666  -22.3986    0.0000 C   0  0  0  0  0  0  0  0  0  0  0  0
   21.3282  -23.1779    0.0000 O   0  0  0  0  0  0  0  0  0  0  0  0
   21.6203  -21.7808    0.0000 O   0  0  0  0  0  0  0  0  0  0  0  0
   23.6712  -18.2570    0.0000 C   0  0  0  0  0  0  0  0  0  0  0  0
   24.4962  -18.2608    0.0000 C   0  0  0  0  0  0  0  0  0  0  0  0
   24.9056  -18.9771    0.0000 C   0  0  0  0  0  0  0  0  0  0  0  0
  7 11  1  0
  6  7  1  0
 11 12  1  0
  7  8  1  0
 12 13  2  0
  8  9  2  0
 13 14  1  0
  9  5  1  0
 14 15  2  0
  4  1  2  0
 15 16  1  0
  5  6  2  0
 16 17  2  0
 17 12  1  0
 18 19  2  0
 19 20  1  0
  2  3  2  0
 20 21  2  0
 21 22  1  0
  3  6  1  0
 22 23  2  0
 23 18  1  0
 15 18  1  0
 23 24  1  0
  1  2  1  0
 24 25  2  0
 24 26  1  0
 10 27  1  0
  8 10  1  0
 27 28  1  0
  5  4  1  0
 28 29  1  0
M  END
>  <From>  (1) 
www.bindingDB.org

>  <BindingDB Reactant_set_id>  (1) 
50069246

>  <Ligand InChI>  (1) 
InChI=1S/C25H24N2O2/c1-2-3-12-24-26-22-10-6-7-11-23(22)27(24)17-18-13-15-19(16-14-18)20-8-4-5-9-21(20)25(28)29/h4-11,13-16H,2-3,12,17H2,1H3,(H,28,29)

>  <Ligand InChI Key>  (1) 
TVNBFJNQCWCHHE-UHFFFAOYSA-N

>  <BindingDB MonomerID>  (1) 
50005347

>  <BindingDB Ligand Name>  (1) 
4'-((2-butyl-1H-benzo[d]imidazol-1-yl)methyl)biphenyl-2-carboxylic acid::4'-(2-Butyl-benzoimidazol-1-ylmethyl)-biphenyl-2-carboxylic acid::4'-(2-Butyl-benzoimidazol-1-ylmethyl)-biphenyl-2-carboxylic acid;0.25H2O::CHEMBL7632

>  <Target Name>  (1) 
Type-1 angiotensin II receptor B

>  <Target Source Organism According to Curator or DataSource>  (1) 
Rattus

>  <Ki (nM)>  (1) 


>  <IC50 (nM)>  (1) 
 400

>  <Kd (nM)>  (1) 


>  <EC50 (nM)>  (1) 


>  <kon (M-1-s-1)>  (1) 


>  <koff (s-1)>  (1) 


>  <pH>  (1) 


>  <Temp C>  (1) 


>  <Curation/DataSource>  (1) 
ChEMBL

>  <Article DOI>  (1) 
10.1021/jm00077a007

>  <BindingDB Entry DOI>  (1) 
10.7270/Q2V98746

>  <PMID>  (1) 
8258826

>  <PubChem AID>  (1) 


>  <Patent Number>  (1) 


>  <Authors>  (1) 
Ries, UJ; Mihm, G; Narr, B; Hasselbach, KM; Wittneben, H; Entzeroth, M; van Meel, JC; Wienen, W; Hauel, NH

>  <Institution>  (1) 
Dr. Karl Thomae GmbH

>  <Link to Ligand in BindingDB>  (1) 
http://www.bindingdb.org/bind/chemsearch/marvin/MolStructure.jsp?monomerid=50005347

>  <Link to Ligand-Target Pair in BindingDB>  (1) 
http://www.bindingdb.org/jsp/dbsearch/PrimarySearch_ki.jsp?energyterm=kJ/mole&tag=r21&monomerid=50005347&enzyme=Type-1+angiotensin+II+receptor+B&column=ki&startPg=0&Increment=50&submit=Search

>  <Ligand HET ID in PDB>  (1) 


>  <PDB ID(s) for Ligand-Target Complex>  (1) 


>  <PubChem CID of Ligand>  (1) 
4110026

>  <PubChem SID of Ligand>  (1) 
103918838

>  <ChEBI ID of Ligand>  (1) 


>  <ChEMBL ID of Ligand>  (1) 
CHEMBL7632

>  <DrugBank ID of Ligand>  (1) 


>  <IUPHAR_GRAC ID of Ligand>  (1) 


>  <KEGG ID of Ligand>  (1) 


>  <ZINC ID of Ligand>  (1) 
ZINC01551889

>  <Number of Protein Chains in Target (bigger than 1 implies a multichain complex)>  (1) 
1

>  <BindingDB Target Chain Sequence>  (1) 
MTLNSSTEDGIKRIQDDCPKAGRHNYIFVMIPTLYSIIFVVGIFGNSLVVIVIYFYMKLKTVASVFLLNLALADLCFLLTLPLWAVYTAMEYRWPFGNHLCKIASASVSFNLYASVFLLTCLSIDRYLAIVHPMKSRLRRTMLVAKVTCIIIWLMAGLASLPAVIYRNVYFIENTNITVCAFHYESQNSTLPIGLGLTKNILGFVFPFLIILTSYTLIWKALKKAYKIQKNTPRNDDIFRIIMAIVLFFFFSWVPHQIFTFLDVLIQLGIIRDCEIADIVDTAMPITICIAYFNNCLNPLFYGFLGKKFKKYFLQLLKYIPPTAKSHAGLSTKMSTLSYRPSDNMSSSAKKSASFFEVE

>  <PDB ID(s) of Target Chain>  (1) 


>  <UniProt (SwissProt) Recommended Name of Target Chain>  (1) 
Type-1 angiotensin II receptor B

>  <UniProt (SwissProt) Entry Name of Target Chain>  (1) 
AGTRB_RAT

>  <UniProt (SwissProt) Primary ID of Target Chain>  (1) 
P29089

>  <UniProt (SwissProt) Secondary ID(s) of Target Chain>  (1) 


>  <UniProt (SwissProt) Alternative ID(s) of Target Chain>  (1) 


>  <UniProt (TrEMBL) Submitted Name of Target Chain>  (1) 


>  <UniProt (TrEMBL) Entry Name of Target Chain>  (1) 


>  <UniProt (TrEMBL) Primary ID of Target Chain>  (1) 


>  <UniProt (TrEMBL) Secondary ID(s) of Target Chain>  (1) 


>  <UniProt (TrEMBL) Alternative ID(s) of Target Chain>  (1) 


$$$$
