
     RDKit          2D

 31 35  0  0  0  0  0  0  0  0999 V2000
   -0.2839    0.4592    0.0000 N   0  0  0  0  0  0  0  0  0  0  0  0
    0.4677    0.1211    0.0000 C   0  0  0  0  0  0  0  0  0  0  0  0
    0.6055    1.4530    0.0000 N   0  0  0  0  0  0  0  0  0  0  0  0
   -0.2004    1.2776    0.0000 C   0  0  0  0  0  0  0  0  0  0  0  0
    1.0188    0.7390    0.0000 C   0  0  0  0  0  0  0  0  0  0  0  0
    0.4301   -3.2609    0.0000 C   0  0  0  0  0  0  0  0  0  0  0  0
   -0.2839   -3.6743    0.0000 C   0  0  0  0  0  0  0  0  0  0  0  0
    0.5136   -2.4342    0.0000 N   0  0  0  0  0  0  0  0  0  0  0  0
    1.3194   -2.2672    0.0000 N   0  0  0  0  0  0  0  0  0  0  0  0
    1.1816   -3.5949    0.0000 N   0  0  0  0  0  0  0  0  0  0  0  0
    0.7265   -0.6639    0.0000 N   0  0  0  0  0  0  0  0  0  0  0  0
    1.7328   -2.9812    0.0000 N   0  0  0  0  0  0  0  0  0  0  0  0
   -0.9979   -3.2609    0.0000 C   0  0  0  0  0  0  0  0  0  0  0  0
    1.8288    0.5720    0.0000 C   0  0  0  0  0  0  0  0  0  0  0  0
   -1.0021    0.0459    0.0000 C   0  0  0  0  0  0  0  0  0  0  0  0
   -1.7118   -3.6743    0.0000 N   0  0  0  0  0  0  0  0  0  0  0  0
   -0.9979   -2.4342    0.0000 C   0  0  0  0  0  0  0  0  0  0  0  0
    1.5324   -0.8309    0.0000 C   0  0  0  0  0  0  0  0  0  0  0  0
    2.0835   -0.2129    0.0000 C   0  0  0  0  0  0  0  0  0  0  0  0
   -1.7118   -2.0209    0.0000 C   0  0  0  0  0  0  0  0  0  0  0  0
   -0.2839   -2.0209    0.0000 C   0  0  0  0  0  0  0  0  0  0  0  0
   -0.9979   -0.7808    0.0000 C   0  0  0  0  0  0  0  0  0  0  0  0
   -0.8142    1.8288    0.0000 C   0  0  0  0  0  0  0  0  0  0  0  0
   -0.2839   -4.4968    0.0000 C   0  0  0  0  0  0  0  0  0  0  0  0
   -0.2839   -1.1942    0.0000 C   0  0  0  0  0  0  0  0  0  0  0  0
   -1.7118   -1.1942    0.0000 C   0  0  0  0  0  0  0  0  0  0  0  0
    2.3799    1.1858    0.0000 C   0  0  0  0  0  0  0  0  0  0  0  0
   -1.7118   -4.5010    0.0000 C   0  0  0  0  0  0  0  0  0  0  0  0
    1.7954   -1.6201    0.0000 C   0  0  0  0  0  0  0  0  0  0  0  0
   -0.9979   -4.9144    0.0000 C   0  0  0  0  0  0  0  0  0  0  0  0
   -0.6471    2.6388    0.0000 C   0  0  0  0  0  0  0  0  0  0  0  0
  2  1  1  0
  3  4  2  0
  4  1  1  0
  5  2  2  0
  6  7  1  0
  7 13  1  0
  8  6  1  0
  9  8  1  0
 10  6  2  0
 11  2  1  0
 12 10  1  0
 13 17  1  0
 14  5  1  0
 15  1  1  0
 16 13  2  0
 17 20  2  0
 18 11  2  0
 19 18  1  0
 20 26  1  0
 21 25  2  0
 22 15  1  0
 23  4  1  0
 24  7  2  0
 25 22  1  0
 26 22  2  0
 27 14  1  0
 28 16  1  0
 29 18  1  0
 30 28  2  0
 31 23  1  0
  5  3  1  0
 17 21  1  0
 19 14  2  0
 30 24  1  0
 12  9  2  0
M  END
>  <From>  (1) 
www.bindingDB.org

>  <BindingDB Reactant_set_id>  (1) 
50267945

>  <Ligand InChI>  (1) 
InChI=1S/C23H22N8/c1-4-19-26-20-14(2)12-15(3)25-23(20)31(19)13-16-7-9-17(10-8-16)21-18(6-5-11-24-21)22-27-29-30-28-22/h5-12H,4,13H2,1-3H3,(H,27,28,29,30)

>  <Ligand InChI Key>  (1) 
FNZWHLOBAMJQLV-UHFFFAOYSA-N

>  <BindingDB MonomerID>  (1) 
50145960

>  <BindingDB Ligand Name>  (1) 
2-Ethyl-5,7-dimethyl-3-{4-[3-(2H-tetrazol-5-yl)-pyridin-2-yl]-benzyl}-3H-imidazo[4,5-b]pyridine::CHEMBL86346

>  <Target Name>  (1) 
Type-1 angiotensin II receptor B

>  <Target Source Organism According to Curator or DataSource>  (1) 
Rattus

>  <Ki (nM)>  (1) 


>  <IC50 (nM)>  (1) 
 18

>  <Kd (nM)>  (1) 


>  <EC50 (nM)>  (1) 


>  <kon (M-1-s-1)>  (1) 


>  <koff (s-1)>  (1) 


>  <pH>  (1) 


>  <Temp C>  (1) 


>  <Curation/DataSource>  (1) 
ChEMBL

>  <Article DOI>  (1) 
10.1021/jm031100t

>  <BindingDB Entry DOI>  (1) 
10.7270/Q25X28DX

>  <PMID>  (1) 
15115399

>  <PubChem AID>  (1) 


>  <Patent Number>  (1) 


>  <Authors>  (1) 
Cappelli, A; Pericot Mohr Gl, G; Gallelli, A; Rizzo, M; Anzini, M; Vomero, S; Mennuni, L; Ferrari, F; Makovec, F; Menziani, MC; De Benedetti, PG; Giorgi, G

>  <Institution>  (1) 
Universit&#224; di Siena

>  <Link to Ligand in BindingDB>  (1) 
http://www.bindingdb.org/bind/chemsearch/marvin/MolStructure.jsp?monomerid=50145960

>  <Link to Ligand-Target Pair in BindingDB>  (1) 
http://www.bindingdb.org/jsp/dbsearch/PrimarySearch_ki.jsp?energyterm=kJ/mole&tag=r21&monomerid=50145960&enzyme=Type-1+angiotensin+II+receptor+B&column=ki&startPg=0&Increment=50&submit=Search

>  <Ligand HET ID in PDB>  (1) 


>  <PDB ID(s) for Ligand-Target Complex>  (1) 


>  <PubChem CID of Ligand>  (1) 
19889373

>  <PubChem SID of Ligand>  (1) 
104034646

>  <ChEBI ID of Ligand>  (1) 


>  <ChEMBL ID of Ligand>  (1) 
CHEMBL86346

>  <DrugBank ID of Ligand>  (1) 


>  <IUPHAR_GRAC ID of Ligand>  (1) 


>  <KEGG ID of Ligand>  (1) 


>  <ZINC ID of Ligand>  (1) 
ZINC13560843

>  <Number of Protein Chains in Target (bigger than 1 implies a multichain complex)>  (1) 
1

>  <BindingDB Target Chain Sequence>  (1) 
MTLNSSTEDGIKRIQDDCPKAGRHNYIFVMIPTLYSIIFVVGIFGNSLVVIVIYFYMKLKTVASVFLLNLALADLCFLLTLPLWAVYTAMEYRWPFGNHLCKIASASVSFNLYASVFLLTCLSIDRYLAIVHPMKSRLRRTMLVAKVTCIIIWLMAGLASLPAVIYRNVYFIENTNITVCAFHYESQNSTLPIGLGLTKNILGFVFPFLIILTSYTLIWKALKKAYKIQKNTPRNDDIFRIIMAIVLFFFFSWVPHQIFTFLDVLIQLGIIRDCEIADIVDTAMPITICIAYFNNCLNPLFYGFLGKKFKKYFLQLLKYIPPTAKSHAGLSTKMSTLSYRPSDNMSSSAKKSASFFEVE

>  <PDB ID(s) of Target Chain>  (1) 


>  <UniProt (SwissProt) Recommended Name of Target Chain>  (1) 
Type-1 angiotensin II receptor B

>  <UniProt (SwissProt) Entry Name of Target Chain>  (1) 
AGTRB_RAT

>  <UniProt (SwissProt) Primary ID of Target Chain>  (1) 
P29089

>  <UniProt (SwissProt) Secondary ID(s) of Target Chain>  (1) 


>  <UniProt (SwissProt) Alternative ID(s) of Target Chain>  (1) 


>  <UniProt (TrEMBL) Submitted Name of Target Chain>  (1) 


>  <UniProt (TrEMBL) Entry Name of Target Chain>  (1) 


>  <UniProt (TrEMBL) Primary ID of Target Chain>  (1) 


>  <UniProt (TrEMBL) Secondary ID(s) of Target Chain>  (1) 


>  <UniProt (TrEMBL) Alternative ID(s) of Target Chain>  (1) 


$$$$
