
     RDKit          2D

 31 34  0  0  0  0  0  0  0  0999 V2000
   -1.2985   -1.1065    0.0000 N   0  0  0  0  0  0  0  0  0  0  0  0
   -1.7118    0.1586    0.0000 N   0  0  0  0  0  0  0  0  0  0  0  0
   -0.6346   -0.6305    0.0000 N   0  0  0  0  0  0  0  0  0  0  0  0
    2.2714   -2.3466    0.0000 C   0  0  0  0  0  0  0  0  0  0  0  0
   -1.9624   -0.6305    0.0000 C   0  0  0  0  0  0  0  0  0  0  0  0
    1.8455   -1.0814    0.0000 N   0  0  0  0  0  0  0  0  0  0  0  0
    1.5950   -1.8706    0.0000 N   0  0  0  0  0  0  0  0  0  0  0  0
    2.6722   -1.0689    0.0000 N   0  0  0  0  0  0  0  0  0  0  0  0
   -0.8851    0.1586    0.0000 C   0  0  0  0  0  0  0  0  0  0  0  0
    2.9353   -1.8580    0.0000 N   0  0  0  0  0  0  0  0  0  0  0  0
    2.2714   -3.1733    0.0000 C   0  0  0  0  0  0  0  0  0  0  0  0
    1.5699   -3.5866    0.0000 C   0  0  0  0  0  0  0  0  0  0  0  0
   -1.2985   -1.9332    0.0000 C   0  0  0  0  0  0  0  0  0  0  0  0
    0.8434   -3.1733    0.0000 C   0  0  0  0  0  0  0  0  0  0  0  0
    0.1295   -3.5866    0.0000 C   0  0  0  0  0  0  0  0  0  0  0  0
    0.8434   -2.3466    0.0000 C   0  0  0  0  0  0  0  0  0  0  0  0
   -0.5845   -2.3466    0.0000 C   0  0  0  0  0  0  0  0  0  0  0  0
   -0.5845   -3.1733    0.0000 C   0  0  0  0  0  0  0  0  0  0  0  0
    0.1295   -1.9332    0.0000 C   0  0  0  0  0  0  0  0  0  0  0  0
   -2.7515   -0.8810    0.0000 C   0  0  0  0  0  0  0  0  0  0  0  0
   -0.3966    0.8225    0.0000 C   0  0  0  0  0  0  0  0  0  0  0  0
    2.9854   -3.5866    0.0000 C   0  0  0  0  0  0  0  0  0  0  0  0
    1.5574   -4.4133    0.0000 C   0  0  0  0  0  0  0  0  0  0  0  0
   -3.3653   -0.3299    0.0000 C   0  0  0  0  0  0  0  0  0  0  0  0
    0.4176    0.7473    0.0000 C   0  0  0  0  0  0  0  0  0  0  0  0
   -4.1544   -0.5929    0.0000 C   0  0  0  0  0  0  0  0  0  0  0  0
    0.9061    1.4112    0.0000 C   0  0  0  0  0  0  0  0  0  0  0  0
    2.2839   -4.8267    0.0000 C   0  0  0  0  0  0  0  0  0  0  0  0
    2.9979   -4.4133    0.0000 C   0  0  0  0  0  0  0  0  0  0  0  0
   -4.7807   -0.0418    0.0000 C   0  0  0  0  0  0  0  0  0  0  0  0
    1.7203    1.3235    0.0000 C   0  0  0  0  0  0  0  0  0  0  0  0
  2  5  2  0
  3  1  1  0
  4 11  1  0
  5  1  1  0
  6  7  1  0
  7  4  1  0
  8 10  1  0
  9  3  2  0
 10  4  2  0
 11 12  1  0
 12 14  1  0
 13  1  1  0
 14 16  2  0
 15 18  2  0
 16 19  1  0
 17 13  1  0
 18 17  1  0
 19 17  2  0
 20  5  1  0
 21  9  1  0
 22 11  2  0
 23 12  2  0
 24 20  1  0
 25 21  1  0
 26 24  1  0
 27 25  1  0
 28 23  1  0
 29 28  2  0
 30 26  1  0
 31 27  1  0
  9  2  1  0
 15 14  1  0
 22 29  1  0
  8  6  2  0
M  END
>  <From>  (1) 
www.bindingDB.org

>  <BindingDB Reactant_set_id>  (1) 
50620763

>  <Ligand InChI>  (1) 
InChI=1S/C24H29N7/c1-3-5-11-22-25-23(12-6-4-2)31(28-22)17-18-13-15-19(16-14-18)20-9-7-8-10-21(20)24-26-29-30-27-24/h7-10,13-16H,3-6,11-12,17H2,1-2H3,(H,26,27,29,30)

>  <Ligand InChI Key>  (1) 
LRZYXWIVLLNUPK-UHFFFAOYSA-N

>  <BindingDB MonomerID>  (1) 
50046078

>  <BindingDB Ligand Name>  (1) 
5-[4'-(3,5-Dibutyl-[1,2,4]triazol-1-ylmethyl)-biphenyl-2-yl]-1H-tetrazole::5-[4'-(3,5-Dibutyl-[1,2,4]triazol-1-ylmethyl)-biphenyl-2-yl]-2H-tetrazole::CHEMBL85595::SC-50560

>  <Target Name>  (1) 
Type-1 angiotensin II receptor

>  <Target Source Organism According to Curator or DataSource>  (1) 
Homo sapiens

>  <Ki (nM)>  (1) 


>  <IC50 (nM)>  (1) 
 5.6

>  <Kd (nM)>  (1) 


>  <EC50 (nM)>  (1) 


>  <kon (M-1-s-1)>  (1) 


>  <koff (s-1)>  (1) 


>  <pH>  (1) 


>  <Temp C>  (1) 


>  <Curation/DataSource>  (1) 
ChEMBL

>  <Article DOI>  (1) 
10.1016/j.bmc.2010.10.043

>  <BindingDB Entry DOI>  (1) 
10.7270/Q2H70G3T

>  <PMID>  (1) 
21071232

>  <PubChem AID>  (1) 


>  <Patent Number>  (1) 


>  <Authors>  (1) 
Naik, P; Murumkar, P; Giridhar, R; Yadav, MR

>  <Institution>  (1) 
The M. S. University of Baroda

>  <Link to Ligand in BindingDB>  (1) 
http://www.bindingdb.org/bind/chemsearch/marvin/MolStructure.jsp?monomerid=50046078

>  <Link to Ligand-Target Pair in BindingDB>  (1) 
http://www.bindingdb.org/jsp/dbsearch/PrimarySearch_ki.jsp?energyterm=kJ/mole&tag=r21&monomerid=50046078&enzyme=Type-1+angiotensin+II+receptor&column=ki&startPg=0&Increment=50&submit=Search

>  <Ligand HET ID in PDB>  (1) 


>  <PDB ID(s) for Ligand-Target Complex>  (1) 


>  <PubChem CID of Ligand>  (1) 
9931685

>  <PubChem SID of Ligand>  (1) 
103976949

>  <ChEBI ID of Ligand>  (1) 


>  <ChEMBL ID of Ligand>  (1) 
CHEMBL85595

>  <DrugBank ID of Ligand>  (1) 


>  <IUPHAR_GRAC ID of Ligand>  (1) 


>  <KEGG ID of Ligand>  (1) 


>  <ZINC ID of Ligand>  (1) 
ZINC01555086

>  <Number of Protein Chains in Target (bigger than 1 implies a multichain complex)>  (1) 
1

>  <BindingDB Target Chain Sequence>  (1) 
MILNSSTEDGIKRIQDDCPKAGRHNYIFVMIPTLYSIIFVVGIFGNSLVVIVIYFYMKLKTVASVFLLNLALADLCFLLTLPLWAVYTAMEYRWPFGNYLCKIASASVSFNLYASVFLLTCLSIDRYLAIVHPMKSRLRRTMLVAKVTCIIIWLLAGLASLPAIIHRNVFFIENTNITVCAFHYESQNSTLPIGLGLTKNILGFLFPFLIILTSYTLIWKALKKAYEIQKNKPRNDDIFKIIMAIVLFFFFSWIPHQIFTFLDVLIQLGIIRDCRIADIVDTAMPITICIAYFNNCLNPLFYGFLGKKFKRYFLQLLKYIPPKAKSHSNLSTKMSTLSYRPSDNVSSSTKKPAPCFEVE

>  <PDB ID(s) of Target Chain>  (1) 
6DO1,6OS0,6OS1,6OS2

>  <UniProt (SwissProt) Recommended Name of Target Chain>  (1) 
Type-1 angiotensin II receptor

>  <UniProt (SwissProt) Entry Name of Target Chain>  (1) 
AGTR1_HUMAN

>  <UniProt (SwissProt) Primary ID of Target Chain>  (1) 
P30556

>  <UniProt (SwissProt) Secondary ID(s) of Target Chain>  (1) 
Q13725 Q8TBK4

>  <UniProt (SwissProt) Alternative ID(s) of Target Chain>  (1) 


>  <UniProt (TrEMBL) Submitted Name of Target Chain>  (1) 


>  <UniProt (TrEMBL) Entry Name of Target Chain>  (1) 


>  <UniProt (TrEMBL) Primary ID of Target Chain>  (1) 


>  <UniProt (TrEMBL) Secondary ID(s) of Target Chain>  (1) 


>  <UniProt (TrEMBL) Alternative ID(s) of Target Chain>  (1) 


$$$$
