
     RDKit          2D

 37 40  0  0  0  0  0  0  0  0999 V2000
    1.8917   -1.8792    0.0000 C   0  0  0  0  0  0  0  0  0  0  0  0
    1.6292   -1.1000    0.0000 N   0  0  0  0  0  0  0  0  0  0  0  0
    1.2167   -2.3667    0.0000 C   0  0  0  0  0  0  0  0  0  0  0  0
    0.8042   -1.1000    0.0000 N   0  0  0  0  0  0  0  0  0  0  0  0
    4.7792   -3.6042    0.0000 C   0  0  0  0  0  0  0  0  0  0  0  0
    0.5542   -1.8875    0.0000 C   0  0  0  0  0  0  0  0  0  0  0  0
    4.3667   -2.3417    0.0000 N   0  0  0  0  0  0  0  0  0  0  0  0
    4.1125   -3.1250    0.0000 N   0  0  0  0  0  0  0  0  0  0  0  0
    5.1917   -2.3375    0.0000 N   0  0  0  0  0  0  0  0  0  0  0  0
    2.1167   -0.4292    0.0000 C   0  0  0  0  0  0  0  0  0  0  0  0
    5.4417   -3.1167    0.0000 N   0  0  0  0  0  0  0  0  0  0  0  0
    1.7792    0.3208    0.0000 C   0  0  0  0  0  0  0  0  0  0  0  0
    2.6750   -2.1375    0.0000 C   0  0  0  0  0  0  0  0  0  0  0  0
    4.7875   -4.4292    0.0000 C   0  0  0  0  0  0  0  0  0  0  0  0
    4.0750   -4.8417    0.0000 C   0  0  0  0  0  0  0  0  0  0  0  0
    1.2167   -3.1917    0.0000 C   0  0  0  0  0  0  0  0  0  0  0  0
    3.3625   -4.4292    0.0000 C   0  0  0  0  0  0  0  0  0  0  0  0
    2.8292   -2.5917    0.0000 O   0  0  0  0  0  0  0  0  0  0  0  0
    1.4750    1.0083    0.0000 F   0  0  0  0  0  0  0  0  0  0  0  0
    2.1667    1.0958    0.0000 F   0  0  0  0  0  0  0  0  0  0  0  0
    0.9500    0.5458    0.0000 F   0  0  0  0  0  0  0  0  0  0  0  0
    3.3625   -3.6042    0.0000 C   0  0  0  0  0  0  0  0  0  0  0  0
    2.6542   -4.8417    0.0000 C   0  0  0  0  0  0  0  0  0  0  0  0
    1.9292   -3.6042    0.0000 C   0  0  0  0  0  0  0  0  0  0  0  0
    3.2875   -1.5875    0.0000 O   0  0  0  0  0  0  0  0  0  0  0  0
    2.6500   -3.1917    0.0000 C   0  0  0  0  0  0  0  0  0  0  0  0
    1.9375   -4.4292    0.0000 C   0  0  0  0  0  0  0  0  0  0  0  0
   -0.2333   -2.1417    0.0000 C   0  0  0  0  0  0  0  0  0  0  0  0
    5.5042   -4.8417    0.0000 C   0  0  0  0  0  0  0  0  0  0  0  0
    4.0750   -5.6667    0.0000 C   0  0  0  0  0  0  0  0  0  0  0  0
    4.0750   -1.8417    0.0000 C   0  0  0  0  0  0  0  0  0  0  0  0
   -0.8458   -1.5875    0.0000 C   0  0  0  0  0  0  0  0  0  0  0  0
   -1.6250   -1.8417    0.0000 C   0  0  0  0  0  0  0  0  0  0  0  0
    5.5042   -5.6667    0.0000 C   0  0  0  0  0  0  0  0  0  0  0  0
    4.7875   -6.0792    0.0000 C   0  0  0  0  0  0  0  0  0  0  0  0
    4.6875   -1.2917    0.0000 C   0  0  0  0  0  0  0  0  0  0  0  0
   -2.2375   -1.2917    0.0000 C   0  0  0  0  0  0  0  0  0  0  0  0
  2  1  1  0
  3  1  2  0
  4  2  1  0
  5 14  1  0
  6  3  1  0
  7  8  1  0
  8  5  1  0
  9 11  1  0
 10  2  1  0
 11  5  2  0
 12 10  1  0
 13  1  1  0
 14 15  1  0
 15 17  1  0
 16  3  1  0
 17 23  2  0
 18 13  2  0
 19 12  1  0
 20 12  1  0
 21 12  1  0
 22 26  2  0
 23 27  1  0
 24 16  1  0
 25 13  1  0
 26 24  1  0
 27 24  2  0
 28  6  1  0
 29 14  2  0
 30 15  2  0
 31 25  1  0
 32 28  1  0
 33 32  1  0
 34 35  2  0
 35 30  1  0
 36 31  1  0
 37 33  1  0
  4  6  2  0
 17 22  1  0
 34 29  1  0
  9  7  2  0
M  END
>  <From>  (1) 
www.bindingDB.org

>  <BindingDB Reactant_set_id>  (1) 
50061742

>  <Ligand InChI>  (1) 
InChI=1S/C26H27F3N6O2/c1-3-5-10-22-21(23(25(36)37-4-2)35(32-22)16-26(27,28)29)15-17-11-13-18(14-12-17)19-8-6-7-9-20(19)24-30-33-34-31-24/h6-9,11-14H,3-5,10,15-16H2,1-2H3,(H,30,31,33,34)

>  <Ligand InChI Key>  (1) 
CEWWPRZYORVDDT-UHFFFAOYSA-N

>  <BindingDB MonomerID>  (1) 
50042541

>  <BindingDB Ligand Name>  (1) 
5-Butyl-4-[2'-(1H-tetrazol-5-yl)-biphenyl-4-ylmethyl]-2-(2,2,2-trifluoro-ethyl)-2H-pyrazole-3-carboxylic acid ethyl ester::CHEMBL118431

>  <Target Name>  (1) 
Type-1 angiotensin II receptor

>  <Target Source Organism According to Curator or DataSource>  (1) 
Oryctolagus cuniculus

>  <Ki (nM)>  (1) 


>  <IC50 (nM)>  (1) 
 30

>  <Kd (nM)>  (1) 


>  <EC50 (nM)>  (1) 


>  <kon (M-1-s-1)>  (1) 


>  <koff (s-1)>  (1) 


>  <pH>  (1) 


>  <Temp C>  (1) 


>  <Curation/DataSource>  (1) 
ChEMBL

>  <Article DOI>  (1) 
10.1021/jm00075a014

>  <BindingDB Entry DOI>  (1) 
10.7270/Q25Q4V5H

>  <PMID>  (1) 
8246227

>  <PubChem AID>  (1) 


>  <Patent Number>  (1) 


>  <Authors>  (1) 
Ashton, WT; Hutchins, SM; Greenlee, WJ; Doss, GA; Chang, RS; Lotti, VJ; Faust, KA; Chen, TB; Zingaro, GJ; Kivlighn, SD

>  <Institution>  (1) 
Merck Research Laboratories

>  <Link to Ligand in BindingDB>  (1) 
http://www.bindingdb.org/bind/chemsearch/marvin/MolStructure.jsp?monomerid=50042541

>  <Link to Ligand-Target Pair in BindingDB>  (1) 
http://www.bindingdb.org/jsp/dbsearch/PrimarySearch_ki.jsp?energyterm=kJ/mole&tag=r21&monomerid=50042541&enzyme=Type-1+angiotensin+II+receptor&column=ki&startPg=0&Increment=50&submit=Search

>  <Ligand HET ID in PDB>  (1) 


>  <PDB ID(s) for Ligand-Target Complex>  (1) 


>  <PubChem CID of Ligand>  (1) 
14971689

>  <PubChem SID of Ligand>  (1) 
103974137

>  <ChEBI ID of Ligand>  (1) 


>  <ChEMBL ID of Ligand>  (1) 
CHEMBL118431

>  <DrugBank ID of Ligand>  (1) 


>  <IUPHAR_GRAC ID of Ligand>  (1) 


>  <KEGG ID of Ligand>  (1) 


>  <ZINC ID of Ligand>  (1) 
ZINC13833902

>  <Number of Protein Chains in Target (bigger than 1 implies a multichain complex)>  (1) 
1

>  <BindingDB Target Chain Sequence>  (1) 
MMLNSSTEDGIKRIQDDCPKAGRHNYIFVMIPTLYSIIFVVGIFGNSLAVIVIYFYMKLKTVASVFLLNLALADLCFLLTLPLWAVYTAMEYRWPFGNYLCKIASASVSFNLYASVFLLTCLSIDRYLAIVHPMKSRLRRTMLVAKVTCIIIWLLAGLASLPAIIHRNVFFIENTNITVCAFHYESQNSTLPIGLGLTKNILGFLFPFLIILTSYTLIWKALKKAYEIQKNKPRNDDIFKIIMAIVLFFFFSWVPHQIFTFLDVLIQLGVIHDCRIADIVDTAMPITICIAYFNNCLNPLFYGFLGKKFKKYFLQLLKYIPPKAKSHSNLSTKMSTLSYRPSDNVSSSSKKPVPCFEVE

>  <PDB ID(s) of Target Chain>  (1) 
6DO1,6OS0,6OS1,6OS2

>  <UniProt (SwissProt) Recommended Name of Target Chain>  (1) 
Type-1 angiotensin II receptor

>  <UniProt (SwissProt) Entry Name of Target Chain>  (1) 
AGTR1_RABIT

>  <UniProt (SwissProt) Primary ID of Target Chain>  (1) 
P34976

>  <UniProt (SwissProt) Secondary ID(s) of Target Chain>  (1) 


>  <UniProt (SwissProt) Alternative ID(s) of Target Chain>  (1) 


>  <UniProt (TrEMBL) Submitted Name of Target Chain>  (1) 


>  <UniProt (TrEMBL) Entry Name of Target Chain>  (1) 


>  <UniProt (TrEMBL) Primary ID of Target Chain>  (1) 


>  <UniProt (TrEMBL) Secondary ID(s) of Target Chain>  (1) 


>  <UniProt (TrEMBL) Alternative ID(s) of Target Chain>  (1) 


$$$$
