
     RDKit          2D

 37 41  0  0  0  0  0  0  0  0999 V2000
    2.6000   -1.1750    0.0000 N   0  0  0  0  0  0  0  0  0  0  0  0
    1.8875   -2.4125    0.0000 N   0  0  0  0  0  0  0  0  0  0  0  0
    2.5917   -2.0000    0.0000 C   0  0  0  0  0  0  0  0  0  0  0  0
    1.1750   -1.1667    0.0000 N   0  0  0  0  0  0  0  0  0  0  0  0
    1.1750   -1.9917    0.0000 C   0  0  0  0  0  0  0  0  0  0  0  0
    5.4500   -3.6500    0.0000 C   0  0  0  0  0  0  0  0  0  0  0  0
    5.0292   -2.3792    0.0000 N   0  0  0  0  0  0  0  0  0  0  0  0
    4.7792   -3.1667    0.0000 N   0  0  0  0  0  0  0  0  0  0  0  0
    5.8542   -2.3792    0.0000 N   0  0  0  0  0  0  0  0  0  0  0  0
    3.1792   -0.5917    0.0000 C   0  0  0  0  0  0  0  0  0  0  0  0
    6.1125   -3.1625    0.0000 N   0  0  0  0  0  0  0  0  0  0  0  0
    5.4542   -4.4750    0.0000 C   0  0  0  0  0  0  0  0  0  0  0  0
    2.9667    0.2000    0.0000 C   0  0  0  0  0  0  0  0  0  0  0  0
    4.7417   -4.8917    0.0000 C   0  0  0  0  0  0  0  0  0  0  0  0
    1.8875   -3.2375    0.0000 C   0  0  0  0  0  0  0  0  0  0  0  0
    3.3125   -2.4125    0.0000 O   0  0  0  0  0  0  0  0  0  0  0  0
    4.0292   -4.4792    0.0000 C   0  0  0  0  0  0  0  0  0  0  0  0
    4.0250   -3.6500    0.0000 C   0  0  0  0  0  0  0  0  0  0  0  0
    3.3125   -4.8917    0.0000 C   0  0  0  0  0  0  0  0  0  0  0  0
    2.1667    0.4125    0.0000 C   0  0  0  0  0  0  0  0  0  0  0  0
    2.6042   -3.6542    0.0000 C   0  0  0  0  0  0  0  0  0  0  0  0
    0.4542   -2.4042    0.0000 C   0  0  0  0  0  0  0  0  0  0  0  0
    2.6000   -4.4792    0.0000 C   0  0  0  0  0  0  0  0  0  0  0  0
    3.3125   -3.2417    0.0000 C   0  0  0  0  0  0  0  0  0  0  0  0
    3.9792   -0.8125    0.0000 C   0  0  0  0  0  0  0  0  0  0  0  0
    6.1667   -4.8792    0.0000 C   0  0  0  0  0  0  0  0  0  0  0  0
    3.5500    0.7833    0.0000 C   0  0  0  0  0  0  0  0  0  0  0  0
    4.7417   -5.7167    0.0000 C   0  0  0  0  0  0  0  0  0  0  0  0
    1.9542    1.2083    0.0000 C   0  0  0  0  0  0  0  0  0  0  0  0
    1.5917   -0.1667    0.0000 C   0  0  0  0  0  0  0  0  0  0  0  0
   -0.2583   -1.9875    0.0000 C   0  0  0  0  0  0  0  0  0  0  0  0
   -0.9708   -2.4000    0.0000 C   0  0  0  0  0  0  0  0  0  0  0  0
    4.5625   -0.2292    0.0000 C   0  0  0  0  0  0  0  0  0  0  0  0
    5.4542   -6.1292    0.0000 C   0  0  0  0  0  0  0  0  0  0  0  0
    6.1667   -5.7125    0.0000 C   0  0  0  0  0  0  0  0  0  0  0  0
    4.3500    0.5708    0.0000 C   0  0  0  0  0  0  0  0  0  0  0  0
   -1.6833   -1.9792    0.0000 C   0  0  0  0  0  0  0  0  0  0  0  0
  2  3  1  0
  3  1  1  0
  4  1  1  0
  5  4  2  0
  6 12  1  0
  7  8  1  0
  8  6  1  0
  9 11  1  0
 10  1  1  0
 11  6  2  0
 12 14  1  0
 13 10  2  0
 14 17  1  0
 15  2  1  0
 16  3  2  0
 17 18  2  0
 18 24  1  0
 19 23  2  0
 20 13  1  0
 21 15  1  0
 22  5  1  0
 23 21  1  0
 24 21  2  0
 25 10  1  0
 26 12  2  0
 27 13  1  0
 28 14  2  0
 29 20  1  0
 30 20  1  0
 31 22  1  0
 32 31  1  0
 33 25  2  0
 34 28  1  0
 35 34  2  0
 36 33  1  0
 37 32  1  0
  5  2  1  0
 27 36  2  0
 19 17  1  0
 26 35  1  0
  7  9  2  0
M  END
>  <From>  (1) 
www.bindingDB.org

>  <BindingDB Reactant_set_id>  (1) 
50060542

>  <Ligand InChI>  (1) 
InChI=1S/C29H31N7O/c1-4-5-14-27-32-36(26-13-9-8-10-23(26)20(2)3)29(37)35(27)19-21-15-17-22(18-16-21)24-11-6-7-12-25(24)28-30-33-34-31-28/h6-13,15-18,20H,4-5,14,19H2,1-3H3,(H,30,31,33,34)

>  <Ligand InChI Key>  (1) 
GBHDXMPLOOJUQY-UHFFFAOYSA-N

>  <BindingDB MonomerID>  (1) 
50044543

>  <BindingDB Ligand Name>  (1) 
5-Butyl-2-(2-isopropyl-phenyl)-4-[2'-(1H-tetrazol-5-yl)-biphenyl-4-ylmethyl]-2,4-dihydro-[1,2,4]triazol-3-one::5-Butyl-2-(2-isopropyl-phenyl)-4-[2'-(2H-tetrazol-5-yl)-biphenyl-4-ylmethyl]-2,4-dihydro-[1,2,4]triazol-3-one::CHEMBL431411

>  <Target Name>  (1) 
Type-1 angiotensin II receptor

>  <Target Source Organism According to Curator or DataSource>  (1) 
Oryctolagus cuniculus

>  <Ki (nM)>  (1) 


>  <IC50 (nM)>  (1) 
 1.4

>  <Kd (nM)>  (1) 


>  <EC50 (nM)>  (1) 


>  <kon (M-1-s-1)>  (1) 


>  <koff (s-1)>  (1) 


>  <pH>  (1) 


>  <Temp C>  (1) 


>  <Curation/DataSource>  (1) 
ChEMBL

>  <Article DOI>  (1) 
10.1021/jm00069a015

>  <BindingDB Entry DOI>  (1) 
10.7270/Q2KP817C

>  <PMID>  (1) 
8355255

>  <PubChem AID>  (1) 


>  <Patent Number>  (1) 


>  <Authors>  (1) 
Chang, LL; Ashton, WT; Flanagan, KL; Strelitz, RA; MacCoss, M; Greenlee, WJ; Chang, RS; Lotti, VJ; Faust, KA; Chen, TB

>  <Institution>  (1) 
Merck Research Laboratories

>  <Link to Ligand in BindingDB>  (1) 
http://www.bindingdb.org/bind/chemsearch/marvin/MolStructure.jsp?monomerid=50044543

>  <Link to Ligand-Target Pair in BindingDB>  (1) 
http://www.bindingdb.org/jsp/dbsearch/PrimarySearch_ki.jsp?energyterm=kJ/mole&tag=r21&monomerid=50044543&enzyme=Type-1+angiotensin+II+receptor&column=ki&startPg=0&Increment=50&submit=Search

>  <Ligand HET ID in PDB>  (1) 


>  <PDB ID(s) for Ligand-Target Complex>  (1) 


>  <PubChem CID of Ligand>  (1) 
44320012

>  <PubChem SID of Ligand>  (1) 
103975781

>  <ChEBI ID of Ligand>  (1) 


>  <ChEMBL ID of Ligand>  (1) 
CHEMBL431411

>  <DrugBank ID of Ligand>  (1) 


>  <IUPHAR_GRAC ID of Ligand>  (1) 


>  <KEGG ID of Ligand>  (1) 


>  <ZINC ID of Ligand>  (1) 
ZINC13832646

>  <Number of Protein Chains in Target (bigger than 1 implies a multichain complex)>  (1) 
1

>  <BindingDB Target Chain Sequence>  (1) 
MMLNSSTEDGIKRIQDDCPKAGRHNYIFVMIPTLYSIIFVVGIFGNSLAVIVIYFYMKLKTVASVFLLNLALADLCFLLTLPLWAVYTAMEYRWPFGNYLCKIASASVSFNLYASVFLLTCLSIDRYLAIVHPMKSRLRRTMLVAKVTCIIIWLLAGLASLPAIIHRNVFFIENTNITVCAFHYESQNSTLPIGLGLTKNILGFLFPFLIILTSYTLIWKALKKAYEIQKNKPRNDDIFKIIMAIVLFFFFSWVPHQIFTFLDVLIQLGVIHDCRIADIVDTAMPITICIAYFNNCLNPLFYGFLGKKFKKYFLQLLKYIPPKAKSHSNLSTKMSTLSYRPSDNVSSSSKKPVPCFEVE

>  <PDB ID(s) of Target Chain>  (1) 
6DO1,6OS0,6OS1,6OS2

>  <UniProt (SwissProt) Recommended Name of Target Chain>  (1) 
Type-1 angiotensin II receptor

>  <UniProt (SwissProt) Entry Name of Target Chain>  (1) 
AGTR1_RABIT

>  <UniProt (SwissProt) Primary ID of Target Chain>  (1) 
P34976

>  <UniProt (SwissProt) Secondary ID(s) of Target Chain>  (1) 


>  <UniProt (SwissProt) Alternative ID(s) of Target Chain>  (1) 


>  <UniProt (TrEMBL) Submitted Name of Target Chain>  (1) 


>  <UniProt (TrEMBL) Entry Name of Target Chain>  (1) 


>  <UniProt (TrEMBL) Primary ID of Target Chain>  (1) 


>  <UniProt (TrEMBL) Secondary ID(s) of Target Chain>  (1) 


>  <UniProt (TrEMBL) Alternative ID(s) of Target Chain>  (1) 


$$$$
