
     RDKit          2D

 30 33  0  0  0  0  0  0  0  0999 V2000
    1.4542   -4.0542    0.0000 C   0  0  0  0  0  0  0  0  0  0  0  0
    2.1250   -4.5417    0.0000 C   0  0  0  0  0  0  0  0  0  0  0  0
    5.6792   -5.7792    0.0000 C   0  0  0  0  0  0  0  0  0  0  0  0
    5.2542   -4.5042    0.0000 N   0  0  0  0  0  0  0  0  0  0  0  0
    2.5292   -3.2750    0.0000 N   0  0  0  0  0  0  0  0  0  0  0  0
    5.0042   -5.3000    0.0000 N   0  0  0  0  0  0  0  0  0  0  0  0
    6.0792   -4.5042    0.0000 N   0  0  0  0  0  0  0  0  0  0  0  0
    2.7917   -4.0542    0.0000 N   0  0  0  0  0  0  0  0  0  0  0  0
    1.7042   -3.2750    0.0000 C   0  0  0  0  0  0  0  0  0  0  0  0
    6.3417   -5.2917    0.0000 N   0  0  0  0  0  0  0  0  0  0  0  0
    0.6667   -4.3167    0.0000 C   0  0  0  0  0  0  0  0  0  0  0  0
    5.6917   -6.6042    0.0000 C   0  0  0  0  0  0  0  0  0  0  0  0
    4.9792   -7.0167    0.0000 C   0  0  0  0  0  0  0  0  0  0  0  0
    2.1250   -5.3667    0.0000 C   0  0  0  0  0  0  0  0  0  0  0  0
    4.2667   -6.6042    0.0000 C   0  0  0  0  0  0  0  0  0  0  0  0
    0.0542   -3.7625    0.0000 O   0  0  0  0  0  0  0  0  0  0  0  0
    4.2667   -5.7792    0.0000 C   0  0  0  0  0  0  0  0  0  0  0  0
    3.5500   -7.0167    0.0000 C   0  0  0  0  0  0  0  0  0  0  0  0
    2.8375   -5.7792    0.0000 C   0  0  0  0  0  0  0  0  0  0  0  0
    0.5000   -5.1167    0.0000 O   0  0  0  0  0  0  0  0  0  0  0  0
    2.8375   -6.6042    0.0000 C   0  0  0  0  0  0  0  0  0  0  0  0
    3.5500   -5.3667    0.0000 C   0  0  0  0  0  0  0  0  0  0  0  0
    3.5750   -4.3125    0.0000 C   0  0  0  0  0  0  0  0  0  0  0  0
    6.4042   -7.0125    0.0000 C   0  0  0  0  0  0  0  0  0  0  0  0
    4.9792   -7.8417    0.0000 C   0  0  0  0  0  0  0  0  0  0  0  0
    4.1875   -3.7625    0.0000 C   0  0  0  0  0  0  0  0  0  0  0  0
    4.9667   -4.0167    0.0000 C   0  0  0  0  0  0  0  0  0  0  0  0
    6.4042   -7.8417    0.0000 C   0  0  0  0  0  0  0  0  0  0  0  0
    5.6917   -8.2542    0.0000 C   0  0  0  0  0  0  0  0  0  0  0  0
    5.5875   -3.4625    0.0000 C   0  0  0  0  0  0  0  0  0  0  0  0
  2  1  2  0
  3 12  1  0
  4  6  1  0
  5  9  2  0
  6  3  1  0
  7 10  1  0
  8  2  1  0
  9  1  1  0
 10  3  2  0
 11  1  1  0
 12 13  1  0
 13 15  1  0
 14  2  1  0
 15 17  2  0
 16 11  2  0
 17 22  1  0
 18 21  2  0
 19 14  1  0
 20 11  1  0
 21 19  1  0
 22 19  2  0
 23  8  1  0
 24 12  2  0
 25 13  2  0
 26 23  1  0
 27 26  1  0
 28 29  2  0
 29 25  1  0
 30 27  1  0
  5  8  1  0
 15 18  1  0
 28 24  1  0
  4  7  2  0
M  END
>  <From>  (1) 
www.bindingDB.org

>  <BindingDB Reactant_set_id>  (1) 
50657364

>  <Ligand InChI>  (1) 
InChI=1S/C22H22N6O2/c1-2-3-12-28-20(19(14-23-28)22(29)30)13-15-8-10-16(11-9-15)17-6-4-5-7-18(17)21-24-26-27-25-21/h4-11,14H,2-3,12-13H2,1H3,(H,29,30)(H,24,25,26,27)

>  <Ligand InChI Key>  (1) 
ZHBCRQGORJHDDO-UHFFFAOYSA-N

>  <BindingDB MonomerID>  (1) 
50056302

>  <BindingDB Ligand Name>  (1) 
1-Butyl-5-[2'-(1H-tetrazol-5-yl)-biphenyl-4-ylmethyl]-1H-pyrazole-4-carboxylic acid::CHEMBL443559

>  <Target Name>  (1) 
Type-1 angiotensin II receptor

>  <Target Source Organism According to Curator or DataSource>  (1) 
Homo sapiens

>  <Ki (nM)>  (1) 


>  <IC50 (nM)>  (1) 
 9.1

>  <Kd (nM)>  (1) 


>  <EC50 (nM)>  (1) 


>  <kon (M-1-s-1)>  (1) 


>  <koff (s-1)>  (1) 


>  <pH>  (1) 


>  <Temp C>  (1) 


>  <Curation/DataSource>  (1) 
ChEMBL

>  <Article DOI>  (1) 
10.1016/j.ejmech.2011.05.056

>  <BindingDB Entry DOI>  (1) 
10.7270/Q2R78FKW

>  <PMID>  (1) 
21683484

>  <PubChem AID>  (1) 


>  <Patent Number>  (1) 


>  <Authors>  (1) 
Deprez-Poulain, R; Cousaert, N; Toto, P; Willand, N; Deprez, B

>  <Institution>  (1) 
University of Lille

>  <Link to Ligand in BindingDB>  (1) 
http://www.bindingdb.org/bind/chemsearch/marvin/MolStructure.jsp?monomerid=50056302

>  <Link to Ligand-Target Pair in BindingDB>  (1) 
http://www.bindingdb.org/jsp/dbsearch/PrimarySearch_ki.jsp?energyterm=kJ/mole&tag=r21&monomerid=50056302&enzyme=Type-1+angiotensin+II+receptor&column=ki&startPg=0&Increment=50&submit=Search

>  <Ligand HET ID in PDB>  (1) 


>  <PDB ID(s) for Ligand-Target Complex>  (1) 


>  <PubChem CID of Ligand>  (1) 
10763626

>  <PubChem SID of Ligand>  (1) 
103952610

>  <ChEBI ID of Ligand>  (1) 


>  <ChEMBL ID of Ligand>  (1) 
CHEMBL443559

>  <DrugBank ID of Ligand>  (1) 


>  <IUPHAR_GRAC ID of Ligand>  (1) 


>  <KEGG ID of Ligand>  (1) 


>  <ZINC ID of Ligand>  (1) 
ZINC13760986

>  <Number of Protein Chains in Target (bigger than 1 implies a multichain complex)>  (1) 
1

>  <BindingDB Target Chain Sequence>  (1) 
MILNSSTEDGIKRIQDDCPKAGRHNYIFVMIPTLYSIIFVVGIFGNSLVVIVIYFYMKLKTVASVFLLNLALADLCFLLTLPLWAVYTAMEYRWPFGNYLCKIASASVSFNLYASVFLLTCLSIDRYLAIVHPMKSRLRRTMLVAKVTCIIIWLLAGLASLPAIIHRNVFFIENTNITVCAFHYESQNSTLPIGLGLTKNILGFLFPFLIILTSYTLIWKALKKAYEIQKNKPRNDDIFKIIMAIVLFFFFSWIPHQIFTFLDVLIQLGIIRDCRIADIVDTAMPITICIAYFNNCLNPLFYGFLGKKFKRYFLQLLKYIPPKAKSHSNLSTKMSTLSYRPSDNVSSSTKKPAPCFEVE

>  <PDB ID(s) of Target Chain>  (1) 
6DO1,6OS0,6OS1,6OS2

>  <UniProt (SwissProt) Recommended Name of Target Chain>  (1) 
Type-1 angiotensin II receptor

>  <UniProt (SwissProt) Entry Name of Target Chain>  (1) 
AGTR1_HUMAN

>  <UniProt (SwissProt) Primary ID of Target Chain>  (1) 
P30556

>  <UniProt (SwissProt) Secondary ID(s) of Target Chain>  (1) 
Q13725 Q8TBK4

>  <UniProt (SwissProt) Alternative ID(s) of Target Chain>  (1) 


>  <UniProt (TrEMBL) Submitted Name of Target Chain>  (1) 


>  <UniProt (TrEMBL) Entry Name of Target Chain>  (1) 


>  <UniProt (TrEMBL) Primary ID of Target Chain>  (1) 


>  <UniProt (TrEMBL) Secondary ID(s) of Target Chain>  (1) 


>  <UniProt (TrEMBL) Alternative ID(s) of Target Chain>  (1) 


$$$$
