
     RDKit          2D

 42 46  0  0  0  0  0  0  0  0999 V2000
   -1.4306  -18.4458    0.0000 N   0  0  0  0  0  0  0  0  0  0  0  0
   -1.4318  -19.2732    0.0000 C   0  0  0  0  0  0  0  0  0  0  0  0
   -0.7169  -19.6860    0.0000 N   0  0  0  0  0  0  0  0  0  0  0  0
   -0.0005  -19.2727    0.0000 C   0  0  0  0  0  0  0  0  0  0  0  0
   -0.0034  -18.4422    0.0000 C   0  0  0  0  0  0  0  0  0  0  0  0
   -0.7187  -18.0330    0.0000 C   0  0  0  0  0  0  0  0  0  0  0  0
   -0.7171  -20.5110    0.0000 C   0  0  0  0  0  0  0  0  0  0  0  0
   -0.0028  -20.9237    0.0000 C   0  0  0  0  0  0  0  0  0  0  0  0
   -0.0071  -21.7469    0.0000 C   0  0  0  0  0  0  0  0  0  0  0  0
    0.7064  -22.1595    0.0000 C   0  0  0  0  0  0  0  0  0  0  0  0
    1.4219  -21.7471    0.0000 C   0  0  0  0  0  0  0  0  0  0  0  0
    1.4195  -20.9179    0.0000 C   0  0  0  0  0  0  0  0  0  0  0  0
    0.7054  -20.5090    0.0000 C   0  0  0  0  0  0  0  0  0  0  0  0
    2.1361  -22.1583    0.0000 C   0  0  0  0  0  0  0  0  0  0  0  0
    2.1357  -22.9841    0.0000 C   0  0  0  0  0  0  0  0  0  0  0  0
    2.8497  -23.3961    0.0000 C   0  0  0  0  0  0  0  0  0  0  0  0
    3.5647  -22.9827    0.0000 C   0  0  0  0  0  0  0  0  0  0  0  0
    3.5611  -22.1535    0.0000 C   0  0  0  0  0  0  0  0  0  0  0  0
    2.8465  -21.7456    0.0000 C   0  0  0  0  0  0  0  0  0  0  0  0
    1.4844  -23.4925    0.0000 C   0  0  0  0  0  0  0  0  0  0  0  0
    0.6916  -23.2642    0.0000 N   0  0  0  0  0  0  0  0  0  0  0  0
    0.2296  -23.9478    0.0000 N   0  0  0  0  0  0  0  0  0  0  0  0
    0.7369  -24.5984    0.0000 N   0  0  0  0  0  0  0  0  0  0  0  0
    1.5124  -24.3170    0.0000 N   0  0  0  0  0  0  0  0  0  0  0  0
    0.7146  -19.6841    0.0000 O   0  0  0  0  0  0  0  0  0  0  0  0
   -2.1466  -19.6851    0.0000 C   0  0  0  0  0  0  0  0  0  0  0  0
   -2.8607  -19.2720    0.0000 C   0  0  0  0  0  0  0  0  0  0  0  0
   -3.5755  -19.6840    0.0000 C   0  0  0  0  0  0  0  0  0  0  0  0
   -4.2896  -19.2709    0.0000 C   0  0  0  0  0  0  0  0  0  0  0  0
   -0.7212  -17.2080    0.0000 C   0  0  0  0  0  0  0  0  0  0  0  0
    0.7096  -18.0270    0.0000 C   0  0  0  0  0  0  0  0  0  0  0  0
    1.4256  -18.4368    0.0000 C   0  0  0  0  0  0  0  0  0  0  0  0
    2.0954  -17.9546    0.0000 N   0  0  0  0  0  0  0  0  0  0  0  0
    1.4287  -19.2618    0.0000 O   0  0  0  0  0  0  0  0  0  0  0  0
    2.8788  -18.2111    0.0000 C   0  0  0  0  0  0  0  0  0  0  0  0
    3.3659  -17.5464    0.0000 C   0  0  0  0  0  0  0  0  0  0  0  0
    2.8838  -16.8769    0.0000 C   0  0  0  0  0  0  0  0  0  0  0  0
    2.0982  -17.1286    0.0000 C   0  0  0  0  0  0  0  0  0  0  0  0
    3.2877  -18.9276    0.0000 C   0  0  0  0  0  0  0  0  0  0  0  0
    2.8715  -19.6400    0.0000 O   0  0  0  0  0  0  0  0  0  0  0  0
    4.1126  -18.9318    0.0000 O   0  0  0  0  0  0  0  0  0  0  0  0
    4.5215  -19.6483    0.0000 C   0  0  0  0  0  0  0  0  0  0  0  0
  4  5  1  0
  9 10  2  0
 21 22  1  0
  2  3  1  0
 10 11  1  0
  5  6  2  0
 20 21  2  0
 22 23  2  0
 24 20  1  0
 15 20  1  0
 11 12  2  0
  4 25  2  0
  6  1  1  0
  2 26  1  0
 12 13  1  0
 26 27  1  0
 13  8  2  0
 27 28  1  0
  1  2  2  0
 28 29  1  0
  3  7  1  0
  6 30  1  0
 14 15  1  0
  5 31  1  0
  3  4  1  0
 31 32  1  0
 15 16  2  0
 32 33  1  0
  7  8  1  0
 32 34  2  0
 35 33  1  0
 16 17  1  0
 17 18  2  0
  8  9  1  0
 35 36  1  0
 36 37  1  0
 37 38  1  0
 38 33  1  0
 18 19  1  0
 35 39  1  1
 19 14  2  0
 39 40  2  0
 11 14  1  0
 39 41  1  0
 23 24  1  0
 41 42  1  0
M  END
>  <From>  (1) 
www.bindingDB.org

>  <BindingDB Reactant_set_id>  (1) 
50718754

>  <Ligand InChI>  (1) 
InChI=1S/C31H35N7O4/c1-4-5-12-27-32-20(2)25(18-28(39)37-17-8-11-26(37)31(41)42-3)30(40)38(27)19-21-13-15-22(16-14-21)23-9-6-7-10-24(23)29-33-35-36-34-29/h6-7,9-10,13-16,26H,4-5,8,11-12,17-19H2,1-3H3,(H,33,34,35,36)/t26-/m0/s1

>  <Ligand InChI Key>  (1) 
ZESJWRQEKWRHME-SANMLTNESA-N

>  <BindingDB MonomerID>  (1) 
50364581

>  <BindingDB Ligand Name>  (1) 
CHEMBL1951130

>  <Target Name>  (1) 
Type-1 angiotensin II receptor

>  <Target Source Organism According to Curator or DataSource>  (1) 
Oryctolagus cuniculus

>  <Ki (nM)>  (1) 


>  <IC50 (nM)>  (1) 
 2.06

>  <Kd (nM)>  (1) 


>  <EC50 (nM)>  (1) 


>  <kon (M-1-s-1)>  (1) 


>  <koff (s-1)>  (1) 


>  <pH>  (1) 


>  <Temp C>  (1) 


>  <Curation/DataSource>  (1) 
ChEMBL

>  <Article DOI>  (1) 
10.1016/j.bmcl.2011.12.116

>  <BindingDB Entry DOI>  (1) 
10.7270/Q22R3S48

>  <PMID>  (1) 
22264484

>  <PubChem AID>  (1) 


>  <Patent Number>  (1) 


>  <Authors>  (1) 
Kim, TW; Yoo, BW; Lee, JK; Kim, JH; Lee, KT; Chi, YH; Lee, JY

>  <Institution>  (1) 
Kyung Hee University

>  <Link to Ligand in BindingDB>  (1) 
http://www.bindingdb.org/bind/chemsearch/marvin/MolStructure.jsp?monomerid=50364581

>  <Link to Ligand-Target Pair in BindingDB>  (1) 
http://www.bindingdb.org/jsp/dbsearch/PrimarySearch_ki.jsp?energyterm=kJ/mole&tag=r21&monomerid=50364581&enzyme=Type-1+angiotensin+II+receptor&column=ki&startPg=0&Increment=50&submit=Search

>  <Ligand HET ID in PDB>  (1) 


>  <PDB ID(s) for Ligand-Target Complex>  (1) 


>  <PubChem CID of Ligand>  (1) 
22942227

>  <PubChem SID of Ligand>  (1) 
136968643

>  <ChEBI ID of Ligand>  (1) 


>  <ChEMBL ID of Ligand>  (1) 
CHEMBL1951130

>  <DrugBank ID of Ligand>  (1) 


>  <IUPHAR_GRAC ID of Ligand>  (1) 


>  <KEGG ID of Ligand>  (1) 


>  <ZINC ID of Ligand>  (1) 
ZINC03842620

>  <Number of Protein Chains in Target (bigger than 1 implies a multichain complex)>  (1) 
1

>  <BindingDB Target Chain Sequence>  (1) 
MMLNSSTEDGIKRIQDDCPKAGRHNYIFVMIPTLYSIIFVVGIFGNSLAVIVIYFYMKLKTVASVFLLNLALADLCFLLTLPLWAVYTAMEYRWPFGNYLCKIASASVSFNLYASVFLLTCLSIDRYLAIVHPMKSRLRRTMLVAKVTCIIIWLLAGLASLPAIIHRNVFFIENTNITVCAFHYESQNSTLPIGLGLTKNILGFLFPFLIILTSYTLIWKALKKAYEIQKNKPRNDDIFKIIMAIVLFFFFSWVPHQIFTFLDVLIQLGVIHDCRIADIVDTAMPITICIAYFNNCLNPLFYGFLGKKFKKYFLQLLKYIPPKAKSHSNLSTKMSTLSYRPSDNVSSSSKKPVPCFEVE

>  <PDB ID(s) of Target Chain>  (1) 
6DO1,6OS0,6OS1,6OS2

>  <UniProt (SwissProt) Recommended Name of Target Chain>  (1) 
Type-1 angiotensin II receptor

>  <UniProt (SwissProt) Entry Name of Target Chain>  (1) 
AGTR1_RABIT

>  <UniProt (SwissProt) Primary ID of Target Chain>  (1) 
P34976

>  <UniProt (SwissProt) Secondary ID(s) of Target Chain>  (1) 


>  <UniProt (SwissProt) Alternative ID(s) of Target Chain>  (1) 


>  <UniProt (TrEMBL) Submitted Name of Target Chain>  (1) 


>  <UniProt (TrEMBL) Entry Name of Target Chain>  (1) 


>  <UniProt (TrEMBL) Primary ID of Target Chain>  (1) 


>  <UniProt (TrEMBL) Secondary ID(s) of Target Chain>  (1) 


>  <UniProt (TrEMBL) Alternative ID(s) of Target Chain>  (1) 


$$$$
