
     RDKit          2D

 41 45  0  0  0  0  0  0  0  0999 V2000
   22.7070   -7.4988    0.0000 C   0  0  0  0  0  0  0  0  0  0  0  0
   23.4259   -7.0954    0.0000 C   0  0  0  0  0  0  0  0  0  0  0  0
   24.1356   -7.5162    0.0000 C   0  0  0  0  0  0  0  0  0  0  0  0
   24.1305   -8.3396    0.0000 C   0  0  0  0  0  0  0  0  0  0  0  0
   23.4115   -8.7430    0.0000 C   0  0  0  0  0  0  0  0  0  0  0  0
   22.7018   -8.3221    0.0000 C   0  0  0  0  0  0  0  0  0  0  0  0
   21.9981   -7.0821    0.0000 C   0  0  0  0  0  0  0  0  0  0  0  0
   21.2791   -7.4854    0.0000 C   0  0  0  0  0  0  0  0  0  0  0  0
   20.5694   -7.0646    0.0000 C   0  0  0  0  0  0  0  0  0  0  0  0
   20.5787   -6.2404    0.0000 C   0  0  0  0  0  0  0  0  0  0  0  0
   21.2977   -5.8371    0.0000 C   0  0  0  0  0  0  0  0  0  0  0  0
   22.0066   -6.2537    0.0000 C   0  0  0  0  0  0  0  0  0  0  0  0
   23.4352   -6.2712    0.0000 C   0  0  0  0  0  0  0  0  0  0  0  0
   24.1534   -5.8638    0.0000 O   0  0  0  0  0  0  0  0  0  0  0  0
   22.7256   -5.8504    0.0000 O   0  0  0  0  0  0  0  0  0  0  0  0
   19.8650   -5.8204    0.0000 C   0  0  0  0  0  0  0  0  0  0  0  0
   20.5468   -4.5159    0.0000 C   0  0  0  0  0  0  0  0  0  0  0  0
   20.3016   -3.7308    0.0000 N   0  0  0  0  0  0  0  0  0  0  0  0
   19.4733   -3.7223    0.0000 C   0  0  0  0  0  0  0  0  0  0  0  0
   19.2108   -4.5057    0.0000 C   0  0  0  0  0  0  0  0  0  0  0  0
   19.8742   -4.9962    0.0000 N   0  0  0  0  0  0  0  0  0  0  0  0
   18.9280   -3.1065    0.0000 C   0  0  0  0  0  0  0  0  0  0  0  0
   18.1194   -3.2699    0.0000 C   0  0  0  0  0  0  0  0  0  0  0  0
   17.8561   -4.0492    0.0000 C   0  0  0  0  0  0  0  0  0  0  0  0
   18.4021   -4.6692    0.0000 C   0  0  0  0  0  0  0  0  0  0  0  0
   21.3302   -4.7784    0.0000 C   0  0  0  0  0  0  0  0  0  0  0  0
   21.9460   -4.2330    0.0000 C   0  0  0  0  0  0  0  0  0  0  0  0
   22.7295   -4.4956    0.0000 C   0  0  0  0  0  0  0  0  0  0  0  0
   19.1905   -2.3231    0.0000 C   0  0  0  0  0  0  0  0  0  0  0  0
   17.0474   -4.2127    0.0000 C   0  0  0  0  0  0  0  0  0  0  0  0
   16.5021   -3.5968    0.0000 O   0  0  0  0  0  0  0  0  0  0  0  0
   16.7849   -4.9960    0.0000 N   0  0  0  0  0  0  0  0  0  0  0  0
   15.9763   -5.1595    0.0000 C   0  0  0  0  0  0  0  0  0  0  0  0
   15.7129   -5.9389    0.0000 C   0  0  0  0  0  0  0  0  0  0  0  0
   14.9042   -6.1023    0.0000 C   0  0  0  0  0  0  0  0  0  0  0  0
   14.6418   -6.8857    0.0000 N   0  0  0  0  0  0  0  0  0  0  0  0
   15.1879   -7.5057    0.0000 C   0  0  0  0  0  0  0  0  0  0  0  0
   14.9254   -8.2890    0.0000 C   0  0  0  0  0  0  0  0  0  0  0  0
   14.1168   -8.4525    0.0000 O   0  0  0  0  0  0  0  0  0  0  0  0
   13.5706   -7.8326    0.0000 C   0  0  0  0  0  0  0  0  0  0  0  0
   13.8331   -7.0492    0.0000 C   0  0  0  0  0  0  0  0  0  0  0  0
  1  2  2  0
  2  3  1  0
  3  4  2  0
  4  5  1  0
  5  6  2  0
  1  6  1  0
  7  8  2  0
  8  9  1  0
  9 10  2  0
 10 11  1  0
 11 12  2  0
  7 12  1  0
  1  7  1  0
 13 14  2  0
 13 15  1  0
  2 13  1  0
 17 18  2  0
 18 19  1  0
 19 20  2  0
 20 21  1  0
 17 21  1  0
 22 23  2  0
 23 24  1  0
 24 25  2  0
 20 25  1  0
 19 22  1  0
 26 27  1  0
 27 28  1  0
 17 26  1  0
 22 29  1  0
 30 31  2  0
 33 34  1  0
 34 35  1  0
 36 37  1  0
 37 38  1  0
 38 39  1  0
 39 40  1  0
 40 41  1  0
 36 41  1  0
 35 36  1  0
 32 33  1  0
 30 32  1  0
 24 30  1  0
 16 21  1  0
 10 16  1  0
M  END
>  <From>  (1) 
www.bindingDB.org

>  <BindingDB Reactant_set_id>  (1) 
51199736

>  <Ligand InChI>  (1) 
InChI=1S/C33H38N4O4/c1-3-7-30-35-31-23(2)20-26(32(38)34-14-6-15-36-16-18-41-19-17-36)21-29(31)37(30)22-24-10-12-25(13-11-24)27-8-4-5-9-28(27)33(39)40/h4-5,8-13,20-21H,3,6-7,14-19,22H2,1-2H3,(H,34,38)(H,39,40)

>  <Ligand InChI Key>  (1) 
SGTORJCNPYSWIC-UHFFFAOYSA-N

>  <BindingDB MonomerID>  (1) 
50493588

>  <BindingDB Ligand Name>  (1) 
CHEMBL2435821

>  <Target Name>  (1) 
Type-1 angiotensin II receptor

>  <Target Source Organism According to Curator or DataSource>  (1) 
Homo sapiens

>  <Ki (nM)>  (1) 


>  <IC50 (nM)>  (1) 
 10.0

>  <Kd (nM)>  (1) 


>  <EC50 (nM)>  (1) 


>  <kon (M-1-s-1)>  (1) 


>  <koff (s-1)>  (1) 


>  <pH>  (1) 


>  <Temp C>  (1) 


>  <Curation/DataSource>  (1) 
ChEMBL

>  <Article DOI>  (1) 
10.1016/j.ejmech.2013.08.014

>  <BindingDB Entry DOI>  (1) 
10.7270/Q2PK0K32

>  <PMID>  (1) 
24007859

>  <PubChem AID>  (1) 


>  <Patent Number>  (1) 


>  <Authors>  (1) 
Zhang, J; Wang, JL; Yu, WF; Zhou, ZM; Tao, WC; Wang, YC; Xue, WZ; Xu, D; Hao, LP; Han, XF; Fei, F; Liu, T; Liang, AH

>  <Institution>  (1) 
Beijing Institute of Technology

>  <Link to Ligand in BindingDB>  (1) 
http://www.bindingdb.org/bind/chemsearch/marvin/MolStructure.jsp?monomerid=50493588

>  <Link to Ligand-Target Pair in BindingDB>  (1) 
http://www.bindingdb.org/jsp/dbsearch/PrimarySearch_ki.jsp?energyterm=kJ/mole&tag=r21&monomerid=50493588&enzyme=Type-1+angiotensin+II+receptor&column=ki&startPg=0&Increment=50&submit=Search

>  <Ligand HET ID in PDB>  (1) 


>  <PDB ID(s) for Ligand-Target Complex>  (1) 


>  <PubChem CID of Ligand>  (1) 
73353933

>  <PubChem SID of Ligand>  (1) 
433960853

>  <ChEBI ID of Ligand>  (1) 


>  <ChEMBL ID of Ligand>  (1) 


>  <DrugBank ID of Ligand>  (1) 


>  <IUPHAR_GRAC ID of Ligand>  (1) 


>  <KEGG ID of Ligand>  (1) 


>  <ZINC ID of Ligand>  (1) 


>  <Number of Protein Chains in Target (bigger than 1 implies a multichain complex)>  (1) 
1

>  <BindingDB Target Chain Sequence>  (1) 
MILNSSTEDGIKRIQDDCPKAGRHNYIFVMIPTLYSIIFVVGIFGNSLVVIVIYFYMKLKTVASVFLLNLALADLCFLLTLPLWAVYTAMEYRWPFGNYLCKIASASVSFNLYASVFLLTCLSIDRYLAIVHPMKSRLRRTMLVAKVTCIIIWLLAGLASLPAIIHRNVFFIENTNITVCAFHYESQNSTLPIGLGLTKNILGFLFPFLIILTSYTLIWKALKKAYEIQKNKPRNDDIFKIIMAIVLFFFFSWIPHQIFTFLDVLIQLGIIRDCRIADIVDTAMPITICIAYFNNCLNPLFYGFLGKKFKRYFLQLLKYIPPKAKSHSNLSTKMSTLSYRPSDNVSSSTKKPAPCFEVE

>  <PDB ID(s) of Target Chain>  (1) 
6DO1,6OS0,6OS1,6OS2

>  <UniProt (SwissProt) Recommended Name of Target Chain>  (1) 
Type-1 angiotensin II receptor

>  <UniProt (SwissProt) Entry Name of Target Chain>  (1) 
AGTR1_HUMAN

>  <UniProt (SwissProt) Primary ID of Target Chain>  (1) 
P30556

>  <UniProt (SwissProt) Secondary ID(s) of Target Chain>  (1) 
Q13725 Q8TBK4

>  <UniProt (SwissProt) Alternative ID(s) of Target Chain>  (1) 


>  <UniProt (TrEMBL) Submitted Name of Target Chain>  (1) 


>  <UniProt (TrEMBL) Entry Name of Target Chain>  (1) 


>  <UniProt (TrEMBL) Primary ID of Target Chain>  (1) 


>  <UniProt (TrEMBL) Secondary ID(s) of Target Chain>  (1) 


>  <UniProt (TrEMBL) Alternative ID(s) of Target Chain>  (1) 


$$$$
