
     RDKit          2D

 29 32  0  0  0  0  0  0  0  0999 V2000
    4.1981   -7.7517    0.0000 N   0  0  0  0  0  0  0  0  0  0  0  0
    3.9484   -6.9606    0.0000 C   0  0  0  0  0  0  0  0  0  0  0  0
    3.1192   -6.9546    0.0000 C   0  0  0  0  0  0  0  0  0  0  0  0
    2.8570   -7.7411    0.0000 N   0  0  0  0  0  0  0  0  0  0  0  0
    3.5240   -8.2334    0.0000 C   0  0  0  0  0  0  0  0  0  0  0  0
    3.5178   -9.0583    0.0000 C   0  0  0  0  0  0  0  0  0  0  0  0
    2.8003   -9.4655    0.0000 O   0  0  0  0  0  0  0  0  0  0  0  0
    4.9103   -8.1681    0.0000 C   0  0  0  0  0  0  0  0  0  0  0  0
    4.9059   -8.9930    0.0000 C   0  0  0  0  0  0  0  0  0  0  0  0
    4.1898   -9.3975    0.0000 C   0  0  0  0  0  0  0  0  0  0  0  0
    4.1851  -10.2217    0.0000 C   0  0  0  0  0  0  0  0  0  0  0  0
    4.8979  -10.6388    0.0000 C   0  0  0  0  0  0  0  0  0  0  0  0
    5.6169  -10.2257    0.0000 C   0  0  0  0  0  0  0  0  0  0  0  0
    5.6182   -9.4029    0.0000 C   0  0  0  0  0  0  0  0  0  0  0  0
    4.8956  -11.4593    0.0000 C   0  0  0  0  0  0  0  0  0  0  0  0
    4.1778  -11.8683    0.0000 C   0  0  0  0  0  0  0  0  0  0  0  0
    4.1742  -12.6925    0.0000 C   0  0  0  0  0  0  0  0  0  0  0  0
    4.8875  -13.1087    0.0000 C   0  0  0  0  0  0  0  0  0  0  0  0
    5.6060  -12.6947    0.0000 C   0  0  0  0  0  0  0  0  0  0  0  0
    5.6061  -11.8718    0.0000 C   0  0  0  0  0  0  0  0  0  0  0  0
    6.3208  -11.4572    0.0000 C   0  0  0  0  0  0  0  0  0  0  0  0
    7.1062  -11.7097    0.0000 N   0  0  0  0  0  0  0  0  0  0  0  0
    7.5891  -11.0408    0.0000 N   0  0  0  0  0  0  0  0  0  0  0  0
    7.1022  -10.3748    0.0000 N   0  0  0  0  0  0  0  0  0  0  0  0
    6.3184  -10.6322    0.0000 N   0  0  0  0  0  0  0  0  0  0  0  0
    4.3642   -6.2481    0.0000 C   0  0  0  0  0  0  0  0  0  0  0  0
    5.1892   -6.2518    0.0000 C   0  0  0  0  0  0  0  0  0  0  0  0
    5.6050   -5.5393    0.0000 C   0  0  0  0  0  0  0  0  0  0  0  0
    6.4299   -5.5430    0.0000 C   0  0  0  0  0  0  0  0  0  0  0  0
 14  9  1  0
  6  7  2  0
  2  3  2  0
 15 16  2  0
  1  8  1  0
 16 17  1  0
  3  4  1  0
 17 18  2  0
  8  9  1  0
 18 19  1  0
  4  5  2  0
 19 20  2  0
 20 15  1  0
 12 15  1  0
 21 22  2  0
  9 10  2  0
  5  1  1  0
 10 11  1  0
  1  2  1  0
 11 12  2  0
 22 23  1  0
 23 24  2  0
 24 25  1  0
 25 21  1  0
 20 21  1  0
  5  6  1  0
  2 26  1  0
 12 13  1  0
 26 27  1  0
 27 28  1  0
 13 14  2  0
 28 29  1  0
M  END
>  <From>  (1) 
www.bindingDB.org

>  <BindingDB Reactant_set_id>  (1) 
50949587

>  <Ligand InChI>  (1) 
InChI=1S/C22H22N6O/c1-2-3-6-18-13-23-21(15-29)28(18)14-16-9-11-17(12-10-16)19-7-4-5-8-20(19)22-24-26-27-25-22/h4-5,7-13,15H,2-3,6,14H2,1H3,(H,24,25,26,27)

>  <Ligand InChI Key>  (1) 
NMJRJERMCYKMED-UHFFFAOYSA-N

>  <BindingDB MonomerID>  (1) 
50389544

>  <BindingDB Ligand Name>  (1) 
CHEMBL2063983

>  <Target Name>  (1) 
Type-1 angiotensin II receptor

>  <Target Source Organism According to Curator or DataSource>  (1) 
Homo sapiens

>  <Ki (nM)>  (1) 


>  <IC50 (nM)>  (1) 
 23.99

>  <Kd (nM)>  (1) 


>  <EC50 (nM)>  (1) 


>  <kon (M-1-s-1)>  (1) 


>  <koff (s-1)>  (1) 


>  <pH>  (1) 


>  <Temp C>  (1) 


>  <Curation/DataSource>  (1) 
ChEMBL

>  <Article DOI>  (1) 
10.1016/j.ejmech.2012.07.040

>  <BindingDB Entry DOI>  (1) 
10.7270/Q23B617T

>  <PMID>  (1) 
22889560

>  <PubChem AID>  (1) 


>  <Patent Number>  (1) 


>  <Authors>  (1) 
Agelis, G; Resvani, A; Durdagi, S; Spyridaki, K; Tumova, T; Slaninova, J; Giannopoulos, P; Vlahakos, D; Liapakis, G; Mavromoustakos, T; Matsoukas, J

>  <Institution>  (1) 
University of Patras

>  <Link to Ligand in BindingDB>  (1) 
http://www.bindingdb.org/bind/chemsearch/marvin/MolStructure.jsp?monomerid=50389544

>  <Link to Ligand-Target Pair in BindingDB>  (1) 
http://www.bindingdb.org/jsp/dbsearch/PrimarySearch_ki.jsp?energyterm=kJ/mole&tag=r21&monomerid=50389544&enzyme=Type-1+angiotensin+II+receptor&column=ki&startPg=0&Increment=50&submit=Search

>  <Ligand HET ID in PDB>  (1) 


>  <PDB ID(s) for Ligand-Target Complex>  (1) 


>  <PubChem CID of Ligand>  (1) 
70694919

>  <PubChem SID of Ligand>  (1) 
160868627

>  <ChEBI ID of Ligand>  (1) 


>  <ChEMBL ID of Ligand>  (1) 
CHEMBL2063983

>  <DrugBank ID of Ligand>  (1) 


>  <IUPHAR_GRAC ID of Ligand>  (1) 


>  <KEGG ID of Ligand>  (1) 


>  <ZINC ID of Ligand>  (1) 
ZINC84668461

>  <Number of Protein Chains in Target (bigger than 1 implies a multichain complex)>  (1) 
1

>  <BindingDB Target Chain Sequence>  (1) 
MILNSSTEDGIKRIQDDCPKAGRHNYIFVMIPTLYSIIFVVGIFGNSLVVIVIYFYMKLKTVASVFLLNLALADLCFLLTLPLWAVYTAMEYRWPFGNYLCKIASASVSFNLYASVFLLTCLSIDRYLAIVHPMKSRLRRTMLVAKVTCIIIWLLAGLASLPAIIHRNVFFIENTNITVCAFHYESQNSTLPIGLGLTKNILGFLFPFLIILTSYTLIWKALKKAYEIQKNKPRNDDIFKIIMAIVLFFFFSWIPHQIFTFLDVLIQLGIIRDCRIADIVDTAMPITICIAYFNNCLNPLFYGFLGKKFKRYFLQLLKYIPPKAKSHSNLSTKMSTLSYRPSDNVSSSTKKPAPCFEVE

>  <PDB ID(s) of Target Chain>  (1) 
6DO1,6OS0,6OS1,6OS2

>  <UniProt (SwissProt) Recommended Name of Target Chain>  (1) 
Type-1 angiotensin II receptor

>  <UniProt (SwissProt) Entry Name of Target Chain>  (1) 
AGTR1_HUMAN

>  <UniProt (SwissProt) Primary ID of Target Chain>  (1) 
P30556

>  <UniProt (SwissProt) Secondary ID(s) of Target Chain>  (1) 
Q13725 Q8TBK4

>  <UniProt (SwissProt) Alternative ID(s) of Target Chain>  (1) 


>  <UniProt (TrEMBL) Submitted Name of Target Chain>  (1) 


>  <UniProt (TrEMBL) Entry Name of Target Chain>  (1) 


>  <UniProt (TrEMBL) Primary ID of Target Chain>  (1) 


>  <UniProt (TrEMBL) Secondary ID(s) of Target Chain>  (1) 


>  <UniProt (TrEMBL) Alternative ID(s) of Target Chain>  (1) 


$$$$
