
     RDKit          2D

 49 53  0  0  0  0  0  0  0  0999 V2000
    7.3330   -6.0972    0.0000 S   0  0  0  0  0  0  0  0  0  0  0  0
    3.7698   -4.8458    0.0000 N   0  0  0  0  0  0  0  0  0  0  0  0
    4.4365   -4.3663    0.0000 C   0  0  0  0  0  0  0  0  0  0  0  0
    3.3605   -3.5827    0.0000 N   0  0  0  0  0  0  0  0  0  0  0  0
    4.1869   -3.5827    0.0000 C   0  0  0  0  0  0  0  0  0  0  0  0
    3.1032   -4.3663    0.0000 C   0  0  0  0  0  0  0  0  0  0  0  0
    8.0464   -5.6839    0.0000 N   0  0  0  0  0  0  0  0  0  0  0  0
    7.3330   -6.9236    0.0000 C   0  0  0  0  0  0  0  0  0  0  0  0
    5.2200   -4.6236    0.0000 C   0  0  0  0  0  0  0  0  0  0  0  0
    6.2804   -2.7289    0.0000 C   0  0  0  0  0  0  0  0  0  0  0  0
    8.7637   -6.0972    0.0000 C   0  0  0  0  0  0  0  0  0  0  0  0
    6.6196   -7.3330    0.0000 C   0  0  0  0  0  0  0  0  0  0  0  0
    7.0679   -2.9823    0.0000 C   0  0  0  0  0  0  0  0  0  0  0  0
    3.7698   -5.6762    0.0000 C   0  0  0  0  0  0  0  0  0  0  0  0
    6.6118   -6.5065    0.0000 O   0  0  0  0  0  0  0  0  0  0  0  0
    6.7482   -5.5124    0.0000 O   0  0  0  0  0  0  0  0  0  0  0  0
    5.8399   -4.0739    0.0000 O   0  0  0  0  0  0  0  0  0  0  0  0
    5.9061   -6.9236    0.0000 C   0  0  0  0  0  0  0  0  0  0  0  0
    7.2394   -3.7815    0.0000 C   0  0  0  0  0  0  0  0  0  0  0  0
    5.6645   -3.2786    0.0000 O   0  0  0  0  0  0  0  0  0  0  0  0
    8.7637   -6.9236    0.0000 O   0  0  0  0  0  0  0  0  0  0  0  0
    5.3604   -5.2083    0.0000 O   0  0  0  0  0  0  0  0  0  0  0  0
    6.1089   -1.9180    0.0000 C   0  0  0  0  0  0  0  0  0  0  0  0
    6.6235   -4.3312    0.0000 C   0  0  0  0  0  0  0  0  0  0  0  0
    5.9061   -6.0933    0.0000 C   0  0  0  0  0  0  0  0  0  0  0  0
    5.1850   -7.3330    0.0000 C   0  0  0  0  0  0  0  0  0  0  0  0
    4.4832   -6.0933    0.0000 C   0  0  0  0  0  0  0  0  0  0  0  0
    9.4771   -5.6839    0.0000 O   0  0  0  0  0  0  0  0  0  0  0  0
    4.6704   -2.9161    0.0000 C   0  0  0  0  0  0  0  0  0  0  0  0
    2.3196   -4.6197    0.0000 C   0  0  0  0  0  0  0  0  0  0  0  0
    4.4715   -6.9159    0.0000 C   0  0  0  0  0  0  0  0  0  0  0  0
    5.1927   -5.6762    0.0000 C   0  0  0  0  0  0  0  0  0  0  0  0
    8.0464   -7.3330    0.0000 C   0  0  0  0  0  0  0  0  0  0  0  0
    7.6761   -2.4326    0.0000 C   0  0  0  0  0  0  0  0  0  0  0  0
    6.6118   -8.1633    0.0000 C   0  0  0  0  0  0  0  0  0  0  0  0
    8.0230   -4.0388    0.0000 C   0  0  0  0  0  0  0  0  0  0  0  0
    5.3253   -1.6724    0.0000 C   0  0  0  0  0  0  0  0  0  0  0  0
    6.7248   -1.3723    0.0000 C   0  0  0  0  0  0  0  0  0  0  0  0
   10.1906   -6.0933    0.0000 C   0  0  0  0  0  0  0  0  0  0  0  0
    1.7075   -4.0622    0.0000 C   0  0  0  0  0  0  0  0  0  0  0  0
    4.3390   -2.1636    0.0000 C   0  0  0  0  0  0  0  0  0  0  0  0
    8.0503   -8.1633    0.0000 C   0  0  0  0  0  0  0  0  0  0  0  0
    8.4713   -2.6822    0.0000 C   0  0  0  0  0  0  0  0  0  0  0  0
    7.3330   -8.5766    0.0000 C   0  0  0  0  0  0  0  0  0  0  0  0
    0.9239   -4.3156    0.0000 C   0  0  0  0  0  0  0  0  0  0  0  0
    6.5533   -0.5653    0.0000 C   0  0  0  0  0  0  0  0  0  0  0  0
    5.1499   -0.8694    0.0000 C   0  0  0  0  0  0  0  0  0  0  0  0
    8.6351   -3.4969    0.0000 C   0  0  0  0  0  0  0  0  0  0  0  0
    5.7658   -0.3080    0.0000 C   0  0  0  0  0  0  0  0  0  0  0  0
  2 14  1  0
  3  2  1  0
  4  6  2  0
  5  3  2  0
  6  2  1  0
  7  1  1  0
  8  1  1  0
  9  3  1  0
 10 13  1  0
 11  7  1  0
 12  8  2  0
 13 19  1  0
 14 27  1  0
 15  1  2  0
 16  1  2  0
 17  9  1  0
 18 12  1  0
 19 24  1  0
 20 10  2  0
 21 11  2  0
 22  9  2  0
 23 10  1  0
 24 17  1  0
 25 18  2  0
 26 18  1  0
 27 31  1  0
 28 11  1  0
 29  5  1  0
 30  6  1  0
 31 26  2  0
 32 25  1  0
 33  8  1  0
 34 13  2  0
 35 12  1  0
 36 19  2  0
 37 23  2  0
 38 23  1  0
 39 28  1  0
 40 30  1  0
 41 29  1  0
 42 33  2  0
 43 48  2  0
 44 42  1  0
 45 40  1  0
 46 38  2  0
 47 37  1  0
 48 36  1  0
 49 46  1  0
 44 35  2  0
 27 32  2  0
  4  5  1  0
 34 43  1  0
 49 47  2  0
M  END
>  <From>  (1) 
www.bindingDB.org

>  <BindingDB Reactant_set_id>  (1) 
50469088

>  <Ligand InChI>  (1) 
InChI=1S/C38H37N3O7S/c1-4-13-34-39-32(5-2)35(37(43)48-25-29-16-9-10-18-31(29)36(42)28-14-7-6-8-15-28)41(34)24-26-20-22-27(23-21-26)30-17-11-12-19-33(30)49(45,46)40-38(44)47-3/h6-12,14-23H,4-5,13,24-25H2,1-3H3,(H,40,44)

>  <Ligand InChI Key>  (1) 
QNRHKXJSLWIGRL-UHFFFAOYSA-N

>  <BindingDB MonomerID>  (1) 
50283205

>  <BindingDB Ligand Name>  (1) 
Biphenylsulfonylcarbamate compound::CHEMBL304065

>  <Target Name>  (1) 
Type-1 angiotensin II receptor

>  <Target Source Organism According to Curator or DataSource>  (1) 
Homo sapiens

>  <Ki (nM)>  (1) 


>  <IC50 (nM)>  (1) 
 0.600000

>  <Kd (nM)>  (1) 


>  <EC50 (nM)>  (1) 


>  <kon (M-1-s-1)>  (1) 


>  <koff (s-1)>  (1) 


>  <pH>  (1) 


>  <Temp C>  (1) 


>  <Curation/DataSource>  (1) 
ChEMBL

>  <Article DOI>  (1) 
10.1016/S0960-894X(00)80077-3

>  <BindingDB Entry DOI>  (1) 
10.7270/Q2DZ088W

>  <PMID>  (1) 


>  <PubChem AID>  (1) 


>  <Patent Number>  (1) 


>  <Authors>  (1) 
Santella, JB; Duncia, JV; Ensinger, CL; VanAtten, MK; Carini, DJ; Wexler, RR; Chiu, AT; Wong, PC; Timmermans, PB

>  <Institution>  (1) 
TBA

>  <Link to Ligand in BindingDB>  (1) 
http://www.bindingdb.org/bind/chemsearch/marvin/MolStructure.jsp?monomerid=50283205

>  <Link to Ligand-Target Pair in BindingDB>  (1) 
http://www.bindingdb.org/jsp/dbsearch/PrimarySearch_ki.jsp?energyterm=kJ/mole&tag=r21&monomerid=50283205&enzyme=Type-1+angiotensin+II+receptor&column=ki&startPg=0&Increment=50&submit=Search

>  <Ligand HET ID in PDB>  (1) 


>  <PDB ID(s) for Ligand-Target Complex>  (1) 


>  <PubChem CID of Ligand>  (1) 
44311617

>  <PubChem SID of Ligand>  (1) 
104124879

>  <ChEBI ID of Ligand>  (1) 


>  <ChEMBL ID of Ligand>  (1) 
CHEMBL304065

>  <DrugBank ID of Ligand>  (1) 


>  <IUPHAR_GRAC ID of Ligand>  (1) 


>  <KEGG ID of Ligand>  (1) 


>  <ZINC ID of Ligand>  (1) 
ZINC26293213

>  <Number of Protein Chains in Target (bigger than 1 implies a multichain complex)>  (1) 
1

>  <BindingDB Target Chain Sequence>  (1) 
MILNSSTEDGIKRIQDDCPKAGRHNYIFVMIPTLYSIIFVVGIFGNSLVVIVIYFYMKLKTVASVFLLNLALADLCFLLTLPLWAVYTAMEYRWPFGNYLCKIASASVSFNLYASVFLLTCLSIDRYLAIVHPMKSRLRRTMLVAKVTCIIIWLLAGLASLPAIIHRNVFFIENTNITVCAFHYESQNSTLPIGLGLTKNILGFLFPFLIILTSYTLIWKALKKAYEIQKNKPRNDDIFKIIMAIVLFFFFSWIPHQIFTFLDVLIQLGIIRDCRIADIVDTAMPITICIAYFNNCLNPLFYGFLGKKFKRYFLQLLKYIPPKAKSHSNLSTKMSTLSYRPSDNVSSSTKKPAPCFEVE

>  <PDB ID(s) of Target Chain>  (1) 
6DO1,6OS0,6OS1,6OS2

>  <UniProt (SwissProt) Recommended Name of Target Chain>  (1) 
Type-1 angiotensin II receptor

>  <UniProt (SwissProt) Entry Name of Target Chain>  (1) 
AGTR1_HUMAN

>  <UniProt (SwissProt) Primary ID of Target Chain>  (1) 
P30556

>  <UniProt (SwissProt) Secondary ID(s) of Target Chain>  (1) 
Q13725 Q8TBK4

>  <UniProt (SwissProt) Alternative ID(s) of Target Chain>  (1) 


>  <UniProt (TrEMBL) Submitted Name of Target Chain>  (1) 


>  <UniProt (TrEMBL) Entry Name of Target Chain>  (1) 


>  <UniProt (TrEMBL) Primary ID of Target Chain>  (1) 


>  <UniProt (TrEMBL) Secondary ID(s) of Target Chain>  (1) 


>  <UniProt (TrEMBL) Alternative ID(s) of Target Chain>  (1) 


$$$$
