
     RDKit          2D

 31 35  0  0  0  0  0  0  0  0999 V2000
    9.0895  -10.3702    0.0000 C   0  0  0  0  0  0  0  0  0  0  0  0
    9.0871  -11.1970    0.0000 C   0  0  0  0  0  0  0  0  0  0  0  0
    8.3707  -11.6073    0.0000 C   0  0  0  0  0  0  0  0  0  0  0  0
    8.3679  -12.4334    0.0000 C   0  0  0  0  0  0  0  0  0  0  0  0
    9.0839  -12.8476    0.0000 C   0  0  0  0  0  0  0  0  0  0  0  0
    9.8041  -12.4340    0.0000 C   0  0  0  0  0  0  0  0  0  0  0  0
    9.8033  -11.6093    0.0000 C   0  0  0  0  0  0  0  0  0  0  0  0
    9.0828  -13.6699    0.0000 C   0  0  0  0  0  0  0  0  0  0  0  0
    8.3638  -14.0837    0.0000 C   0  0  0  0  0  0  0  0  0  0  0  0
    8.3622  -14.9097    0.0000 C   0  0  0  0  0  0  0  0  0  0  0  0
    9.0787  -15.3231    0.0000 C   0  0  0  0  0  0  0  0  0  0  0  0
    9.7984  -14.9085    0.0000 C   0  0  0  0  0  0  0  0  0  0  0  0
    9.7965  -14.0838    0.0000 C   0  0  0  0  0  0  0  0  0  0  0  0
   10.5127  -13.6674    0.0000 C   0  0  0  0  0  0  0  0  0  0  0  0
   11.2664  -14.0035    0.0000 N   0  0  0  0  0  0  0  0  0  0  0  0
   11.8203  -13.3873    0.0000 N   0  0  0  0  0  0  0  0  0  0  0  0
   10.5954  -12.8431    0.0000 N   0  0  0  0  0  0  0  0  0  0  0  0
   11.3257  -12.6617    0.0000 N   0  0  0  0  0  0  0  0  0  0  0  0
    9.8032   -9.9609    0.0000 N   0  0  0  0  0  0  0  0  0  0  0  0
   10.5551  -10.3017    0.0000 C   0  0  0  0  0  0  0  0  0  0  0  0
    9.8929   -9.1470    0.0000 C   0  0  0  0  0  0  0  0  0  0  0  0
   10.7223  -11.1072    0.0000 O   0  0  0  0  0  0  0  0  0  0  0  0
   10.6981   -8.9782    0.0000 C   0  0  0  0  0  0  0  0  0  0  0  0
   11.1041   -9.6936    0.0000 C   0  0  0  0  0  0  0  0  0  0  0  0
   11.9248   -9.6986    0.0000 C   0  0  0  0  0  0  0  0  0  0  0  0
   12.3405   -8.9890    0.0000 C   0  0  0  0  0  0  0  0  0  0  0  0
   11.9294   -8.2729    0.0000 C   0  0  0  0  0  0  0  0  0  0  0  0
   11.1100   -8.2714    0.0000 N   0  0  0  0  0  0  0  0  0  0  0  0
    9.2837   -8.5941    0.0000 C   0  0  0  0  0  0  0  0  0  0  0  0
    9.4580   -7.7901    0.0000 C   0  0  0  0  0  0  0  0  0  0  0  0
    8.8488   -7.2372    0.0000 C   0  0  0  0  0  0  0  0  0  0  0  0
  7  2  2  0
  3  4  2  0
 15 16  1  0
 16 18  2  0
 18 17  1  0
 17 14  2  0
  8  9  2  0
  4  5  1  0
  1 19  1  0
 19 20  1  0
  9 10  1  0
  2  3  1  0
 20 24  1  0
 23 21  2  0
 21 19  1  0
 10 11  2  0
 20 22  2  0
  5  6  2  0
 11 12  1  0
 23 24  1  0
  1  2  1  0
 24 25  2  0
 12 13  2  0
 25 26  1  0
 13  8  1  0
 26 27  2  0
  5  8  1  0
 27 28  1  0
 28 23  1  0
  6  7  1  0
 21 29  1  0
 13 14  1  0
 29 30  1  0
 14 15  1  0
 30 31  1  0
M  END
>  <From>  (1) 
www.bindingDB.org

>  <BindingDB Reactant_set_id>  (1) 
50867918

>  <Ligand InChI>  (1) 
InChI=1S/C24H22N6O/c1-2-6-21-22-20(9-5-14-25-22)24(31)30(21)15-16-10-12-17(13-11-16)18-7-3-4-8-19(18)23-26-28-29-27-23/h3-5,7-14,25H,2,6,15H2,1H3,(H,26,27,28,29)

>  <Ligand InChI Key>  (1) 
NYWBVZBVXAYEPC-UHFFFAOYSA-N

>  <BindingDB MonomerID>  (1) 
50376908

>  <BindingDB Ligand Name>  (1) 
CHEMBL261248

>  <Target Name>  (1) 
Type-1 angiotensin II receptor A

>  <Target Source Organism According to Curator or DataSource>  (1) 
Rattus

>  <Ki (nM)>  (1) 


>  <IC50 (nM)>  (1) 
 154

>  <Kd (nM)>  (1) 


>  <EC50 (nM)>  (1) 


>  <kon (M-1-s-1)>  (1) 


>  <koff (s-1)>  (1) 


>  <pH>  (1) 


>  <Temp C>  (1) 


>  <Curation/DataSource>  (1) 
ChEMBL

>  <Article DOI>  (1) 
10.1021/jm7011563

>  <BindingDB Entry DOI>  (1) 
10.7270/Q20P10X0

>  <PMID>  (1) 
18318468

>  <PubChem AID>  (1) 


>  <Patent Number>  (1) 


>  <Authors>  (1) 
Cappelli, A; Nannicini, C; Gallelli, A; Giuliani, G; Valenti, S; Mohr, Gl; Anzini, M; Mennuni, L; Ferrari, F; Caselli, G; Giordani, A; Peris, W; Makovec, F; Giorgi, G; Vomero, S

>  <Institution>  (1) 
Universit&#163; di Siena

>  <Link to Ligand in BindingDB>  (1) 
http://www.bindingdb.org/bind/chemsearch/marvin/MolStructure.jsp?monomerid=50376908

>  <Link to Ligand-Target Pair in BindingDB>  (1) 
http://www.bindingdb.org/jsp/dbsearch/PrimarySearch_ki.jsp?energyterm=kJ/mole&tag=r21&monomerid=50376908&enzyme=Type-1+angiotensin+II+receptor+A&column=ki&startPg=0&Increment=50&submit=Search

>  <Ligand HET ID in PDB>  (1) 


>  <PDB ID(s) for Ligand-Target Complex>  (1) 


>  <PubChem CID of Ligand>  (1) 
91929930

>  <PubChem SID of Ligand>  (1) 
160855991

>  <ChEBI ID of Ligand>  (1) 


>  <ChEMBL ID of Ligand>  (1) 
CHEMBL261248

>  <DrugBank ID of Ligand>  (1) 


>  <IUPHAR_GRAC ID of Ligand>  (1) 


>  <KEGG ID of Ligand>  (1) 


>  <ZINC ID of Ligand>  (1) 
ZINC29050693

>  <Number of Protein Chains in Target (bigger than 1 implies a multichain complex)>  (1) 
1

>  <BindingDB Target Chain Sequence>  (1) 
MALNSSAEDGIKRIQDDCPKAGRHSYIFVMIPTLYSIIFVVGIFGNSLVVIVIYFYMKLKTVASVFLLNLALADLCFLLTLPLWAVYTAMEYRWPFGNHLCKIASASVSFNLYASVFLLTCLSIDRYLAIVHPMKSRLRRTMLVAKVTCIIIWLMAGLASLPAVIHRNVYFIENTNITVCAFHYESRNSTLPIGLGLTKNILGFLFPFLIILTSYTLIWKALKKAYEIQKNKPRNDDIFRIIMAIVLFFFFSWVPHQIFTFLDVLIQLGVIHDCKISDIVDTAMPITICIAYFNNCLNPLFYGFLGKKFKKYFLQLLKYIPPKAKSHSSLSTKMSTLSYRPSDNMSSSAKKPASCFEVE

>  <PDB ID(s) of Target Chain>  (1) 


>  <UniProt (SwissProt) Recommended Name of Target Chain>  (1) 
Type-1 angiotensin II receptor A

>  <UniProt (SwissProt) Entry Name of Target Chain>  (1) 
AGTRA_RAT

>  <UniProt (SwissProt) Primary ID of Target Chain>  (1) 
P25095

>  <UniProt (SwissProt) Secondary ID(s) of Target Chain>  (1) 
Q9QVS5

>  <UniProt (SwissProt) Alternative ID(s) of Target Chain>  (1) 


>  <UniProt (TrEMBL) Submitted Name of Target Chain>  (1) 


>  <UniProt (TrEMBL) Entry Name of Target Chain>  (1) 


>  <UniProt (TrEMBL) Primary ID of Target Chain>  (1) 


>  <UniProt (TrEMBL) Secondary ID(s) of Target Chain>  (1) 


>  <UniProt (TrEMBL) Alternative ID(s) of Target Chain>  (1) 


$$$$
