
     RDKit          2D

 38 41  0  0  0  0  0  0  0  0999 V2000
    0.7792   -1.5167    0.0000 N   0  0  0  0  0  0  0  0  0  0  0  0
    1.4500   -1.0292    0.0000 C   0  0  0  0  0  0  0  0  0  0  0  0
    1.1917   -0.2417    0.0000 N   0  0  0  0  0  0  0  0  0  0  0  0
    0.3667   -0.2417    0.0000 N   0  0  0  0  0  0  0  0  0  0  0  0
    0.1167   -1.0292    0.0000 C   0  0  0  0  0  0  0  0  0  0  0  0
    4.3542   -3.5792    0.0000 C   0  0  0  0  0  0  0  0  0  0  0  0
    5.0667   -3.9917    0.0000 C   0  0  0  0  0  0  0  0  0  0  0  0
    5.7792   -3.5792    0.0000 C   0  0  0  0  0  0  0  0  0  0  0  0
    5.7667   -2.7500    0.0000 C   0  0  0  0  0  0  0  0  0  0  0  0
    3.6417   -3.9917    0.0000 N   0  0  0  0  0  0  0  0  0  0  0  0
    2.2750   -1.0292    0.0000 S   0  0  0  0  0  0  0  0  0  0  0  0
    0.7792   -2.3417    0.0000 C   0  0  0  0  0  0  0  0  0  0  0  0
    4.3542   -2.7542    0.0000 O   0  0  0  0  0  0  0  0  0  0  0  0
    5.0542   -2.3417    0.0000 O   0  0  0  0  0  0  0  0  0  0  0  0
    2.9250   -3.5792    0.0000 C   0  0  0  0  0  0  0  0  0  0  0  0
    1.4917   -2.7542    0.0000 C   0  0  0  0  0  0  0  0  0  0  0  0
    2.6792   -0.3125    0.0000 C   0  0  0  0  0  0  0  0  0  0  0  0
    6.4792   -2.3292    0.0000 O   0  0  0  0  0  0  0  0  0  0  0  0
    3.5042   -0.3125    0.0000 C   0  0  0  0  0  0  0  0  0  0  0  0
    5.1542   -0.3167    0.0000 C   0  0  0  0  0  0  0  0  0  0  0  0
    2.2167   -3.9917    0.0000 C   0  0  0  0  0  0  0  0  0  0  0  0
    2.9250   -2.7542    0.0000 C   0  0  0  0  0  0  0  0  0  0  0  0
    2.2125   -2.3417    0.0000 C   0  0  0  0  0  0  0  0  0  0  0  0
    1.5000   -3.5792    0.0000 C   0  0  0  0  0  0  0  0  0  0  0  0
    3.9167   -1.0292    0.0000 C   0  0  0  0  0  0  0  0  0  0  0  0
    3.9167    0.4000    0.0000 C   0  0  0  0  0  0  0  0  0  0  0  0
    4.7375    0.4000    0.0000 C   0  0  0  0  0  0  0  0  0  0  0  0
    4.7417   -1.0292    0.0000 C   0  0  0  0  0  0  0  0  0  0  0  0
   -0.7083   -1.0292    0.0000 C   0  0  0  0  0  0  0  0  0  0  0  0
    5.0667   -4.8167    0.0000 C   0  0  0  0  0  0  0  0  0  0  0  0
    6.4917   -3.9875    0.0000 C   0  0  0  0  0  0  0  0  0  0  0  0
    5.9792   -0.3167    0.0000 O   0  0  0  0  0  0  0  0  0  0  0  0
    6.3917    0.3958    0.0000 C   0  0  0  0  0  0  0  0  0  0  0  0
   -1.1208   -0.3167    0.0000 C   0  0  0  0  0  0  0  0  0  0  0  0
   -1.9458   -0.3167    0.0000 C   0  0  0  0  0  0  0  0  0  0  0  0
    5.7792   -5.2292    0.0000 C   0  0  0  0  0  0  0  0  0  0  0  0
    6.4917   -4.8167    0.0000 C   0  0  0  0  0  0  0  0  0  0  0  0
   -2.3583    0.4000    0.0000 C   0  0  0  0  0  0  0  0  0  0  0  0
  2  1  1  0
  3  2  2  0
  4  5  2  0
  5  1  1  0
  6 10  1  0
  7  6  1  0
  8  7  2  0
  9  8  1  0
 10 15  1  0
 11  2  1  0
 12  1  1  0
 13  6  2  0
 14  9  2  0
 15 21  2  0
 16 12  1  0
 17 11  1  0
 18  9  1  0
 19 17  1  0
 20 27  2  0
 21 24  1  0
 22 23  2  0
 23 16  1  0
 24 16  2  0
 25 19  1  0
 26 19  2  0
 27 26  1  0
 28 25  2  0
 29  5  1  0
 30  7  1  0
 31  8  1  0
 32 20  1  0
 33 32  1  0
 34 29  1  0
 35 34  1  0
 36 30  2  0
 37 36  1  0
 38 35  1  0
  3  4  1  0
 22 15  1  0
 28 20  1  0
 37 31  2  0
M  END
>  <From>  (1) 
www.bindingDB.org

>  <BindingDB Reactant_set_id>  (1) 
51183526

>  <Ligand InChI>  (1) 
InChI=1S/C29H30N4O4S/c1-3-4-9-26-31-32-29(38-19-21-12-16-23(37-2)17-13-21)33(26)18-20-10-14-22(15-11-20)30-27(34)24-7-5-6-8-25(24)28(35)36/h5-8,10-17H,3-4,9,18-19H2,1-2H3,(H,30,34)(H,35,36)

>  <Ligand InChI Key>  (1) 
YDLBERHNGQEWCG-UHFFFAOYSA-N

>  <BindingDB MonomerID>  (1) 
50047803

>  <BindingDB Ligand Name>  (1) 
CHEMBL345459::N-{4-[3-Butyl-5-(4-methoxy-benzylsulfanyl)-[1,2,4]triazol-4-ylmethyl]-phenyl}-phthalamic acid

>  <Target Name>  (1) 
Type-1 angiotensin II receptor

>  <Target Source Organism According to Curator or DataSource>  (1) 
Oryctolagus cuniculus

>  <Ki (nM)>  (1) 


>  <IC50 (nM)>  (1) 
 3.0

>  <Kd (nM)>  (1) 


>  <EC50 (nM)>  (1) 


>  <kon (M-1-s-1)>  (1) 


>  <koff (s-1)>  (1) 


>  <pH>  (1) 


>  <Temp C>  (1) 


>  <Curation/DataSource>  (1) 
ChEMBL

>  <Article DOI>  (1) 
10.1007/s00044-011-9756-4

>  <BindingDB Entry DOI>  (1) 
10.7270/Q2833VXQ

>  <PMID>  (1) 


>  <PubChem AID>  (1) 


>  <Patent Number>  (1) 


>  <Authors>  (1) 
n/a

>  <Institution>  (1) 
n/a

>  <Link to Ligand in BindingDB>  (1) 
http://www.bindingdb.org/bind/chemsearch/marvin/MolStructure.jsp?monomerid=50047803

>  <Link to Ligand-Target Pair in BindingDB>  (1) 
http://www.bindingdb.org/jsp/dbsearch/PrimarySearch_ki.jsp?energyterm=kJ/mole&tag=r21&monomerid=50047803&enzyme=Type-1+angiotensin+II+receptor&column=ki&startPg=0&Increment=50&submit=Search

>  <Ligand HET ID in PDB>  (1) 


>  <PDB ID(s) for Ligand-Target Complex>  (1) 


>  <PubChem CID of Ligand>  (1) 
11756787

>  <PubChem SID of Ligand>  (1) 
103978367

>  <ChEBI ID of Ligand>  (1) 


>  <ChEMBL ID of Ligand>  (1) 
CHEMBL345459

>  <DrugBank ID of Ligand>  (1) 


>  <IUPHAR_GRAC ID of Ligand>  (1) 


>  <KEGG ID of Ligand>  (1) 
C06374

>  <ZINC ID of Ligand>  (1) 
ZINC27717962

>  <Number of Protein Chains in Target (bigger than 1 implies a multichain complex)>  (1) 
1

>  <BindingDB Target Chain Sequence>  (1) 
MMLNSSTEDGIKRIQDDCPKAGRHNYIFVMIPTLYSIIFVVGIFGNSLAVIVIYFYMKLKTVASVFLLNLALADLCFLLTLPLWAVYTAMEYRWPFGNYLCKIASASVSFNLYASVFLLTCLSIDRYLAIVHPMKSRLRRTMLVAKVTCIIIWLLAGLASLPAIIHRNVFFIENTNITVCAFHYESQNSTLPIGLGLTKNILGFLFPFLIILTSYTLIWKALKKAYEIQKNKPRNDDIFKIIMAIVLFFFFSWVPHQIFTFLDVLIQLGVIHDCRIADIVDTAMPITICIAYFNNCLNPLFYGFLGKKFKKYFLQLLKYIPPKAKSHSNLSTKMSTLSYRPSDNVSSSSKKPVPCFEVE

>  <PDB ID(s) of Target Chain>  (1) 
6DO1,6OS0,6OS1,6OS2

>  <UniProt (SwissProt) Recommended Name of Target Chain>  (1) 
Type-1 angiotensin II receptor

>  <UniProt (SwissProt) Entry Name of Target Chain>  (1) 
AGTR1_RABIT

>  <UniProt (SwissProt) Primary ID of Target Chain>  (1) 
P34976

>  <UniProt (SwissProt) Secondary ID(s) of Target Chain>  (1) 


>  <UniProt (SwissProt) Alternative ID(s) of Target Chain>  (1) 


>  <UniProt (TrEMBL) Submitted Name of Target Chain>  (1) 


>  <UniProt (TrEMBL) Entry Name of Target Chain>  (1) 


>  <UniProt (TrEMBL) Primary ID of Target Chain>  (1) 


>  <UniProt (TrEMBL) Secondary ID(s) of Target Chain>  (1) 


>  <UniProt (TrEMBL) Alternative ID(s) of Target Chain>  (1) 


$$$$
