
     RDKit          2D

 30 33  0  0  0  0  0  0  0  0999 V2000
   10.6189   -7.7392    0.0000 N   0  0  0  0  0  0  0  0  0  0  0  0
   10.3693   -6.9481    0.0000 C   0  0  0  0  0  0  0  0  0  0  0  0
    9.5400   -6.9421    0.0000 C   0  0  0  0  0  0  0  0  0  0  0  0
    9.2779   -7.7286    0.0000 N   0  0  0  0  0  0  0  0  0  0  0  0
    9.9443   -8.2226    0.0000 C   0  0  0  0  0  0  0  0  0  0  0  0
    9.4817   -8.9057    0.0000 C   0  0  0  0  0  0  0  0  0  0  0  0
   11.3312   -8.1556    0.0000 C   0  0  0  0  0  0  0  0  0  0  0  0
   11.3268   -8.9805    0.0000 C   0  0  0  0  0  0  0  0  0  0  0  0
   10.6107   -9.3850    0.0000 C   0  0  0  0  0  0  0  0  0  0  0  0
   10.6059  -10.2092    0.0000 C   0  0  0  0  0  0  0  0  0  0  0  0
   11.3187  -10.6263    0.0000 C   0  0  0  0  0  0  0  0  0  0  0  0
   12.0378  -10.2132    0.0000 C   0  0  0  0  0  0  0  0  0  0  0  0
   12.0390   -9.3904    0.0000 C   0  0  0  0  0  0  0  0  0  0  0  0
   11.3164  -11.4468    0.0000 C   0  0  0  0  0  0  0  0  0  0  0  0
   10.5987  -11.8558    0.0000 C   0  0  0  0  0  0  0  0  0  0  0  0
   10.5950  -12.6800    0.0000 C   0  0  0  0  0  0  0  0  0  0  0  0
   11.3083  -13.0962    0.0000 C   0  0  0  0  0  0  0  0  0  0  0  0
   12.0268  -12.6822    0.0000 C   0  0  0  0  0  0  0  0  0  0  0  0
   12.0270  -11.8593    0.0000 C   0  0  0  0  0  0  0  0  0  0  0  0
   12.7417  -11.4447    0.0000 C   0  0  0  0  0  0  0  0  0  0  0  0
   13.5270  -11.6972    0.0000 N   0  0  0  0  0  0  0  0  0  0  0  0
   14.0100  -11.0283    0.0000 N   0  0  0  0  0  0  0  0  0  0  0  0
   13.5230  -10.3623    0.0000 N   0  0  0  0  0  0  0  0  0  0  0  0
   12.7392  -10.6197    0.0000 N   0  0  0  0  0  0  0  0  0  0  0  0
   10.7850   -6.2356    0.0000 C   0  0  0  0  0  0  0  0  0  0  0  0
   11.6100   -6.2393    0.0000 C   0  0  0  0  0  0  0  0  0  0  0  0
   12.0258   -5.5268    0.0000 C   0  0  0  0  0  0  0  0  0  0  0  0
   12.8508   -5.5305    0.0000 C   0  0  0  0  0  0  0  0  0  0  0  0
    8.6583   -8.8483    0.0000 O   0  0  0  0  0  0  0  0  0  0  0  0
    9.8414   -9.6496    0.0000 O   0  0  0  0  0  0  0  0  0  0  0  0
 14 15  2  0
  2  3  2  0
 15 16  1  0
  7  8  1  0
 16 17  2  0
  3  4  1  0
 17 18  1  0
  8  9  2  0
 18 19  2  0
 19 14  1  0
 11 14  1  0
 20 21  2  0
  4  5  2  0
  9 10  1  0
  5  1  1  0
 10 11  2  0
  1  2  1  0
 21 22  1  0
 22 23  2  0
 23 24  1  0
 24 20  1  0
 19 20  1  0
 11 12  1  0
  2 25  1  0
  5  6  1  0
 25 26  1  0
 12 13  2  0
 26 27  1  0
 13  8  1  0
 27 28  1  0
  1  7  1  0
  6 29  1  0
  6 30  2  0
M  END
>  <From>  (1) 
www.bindingDB.org

>  <BindingDB Reactant_set_id>  (1) 
50949598

>  <Ligand InChI>  (1) 
InChI=1S/C22H22N6O2/c1-2-3-6-17-13-23-21(22(29)30)28(17)14-15-9-11-16(12-10-15)18-7-4-5-8-19(18)20-24-26-27-25-20/h4-5,7-13H,2-3,6,14H2,1H3,(H,29,30)(H,24,25,26,27)

>  <Ligand InChI Key>  (1) 
IGHOXCLPGGDPRG-UHFFFAOYSA-N

>  <BindingDB MonomerID>  (1) 
50389547

>  <BindingDB Ligand Name>  (1) 
CHEMBL2063984

>  <Target Name>  (1) 
Type-1 angiotensin II receptor

>  <Target Source Organism According to Curator or DataSource>  (1) 
Homo sapiens

>  <Ki (nM)>  (1) 


>  <IC50 (nM)>  (1) 
 3.47

>  <Kd (nM)>  (1) 


>  <EC50 (nM)>  (1) 


>  <kon (M-1-s-1)>  (1) 


>  <koff (s-1)>  (1) 


>  <pH>  (1) 


>  <Temp C>  (1) 


>  <Curation/DataSource>  (1) 
ChEMBL

>  <Article DOI>  (1) 
10.1016/j.ejmech.2012.07.040

>  <BindingDB Entry DOI>  (1) 
10.7270/Q23B617T

>  <PMID>  (1) 
22889560

>  <PubChem AID>  (1) 


>  <Patent Number>  (1) 


>  <Authors>  (1) 
Agelis, G; Resvani, A; Durdagi, S; Spyridaki, K; Tumova, T; Slaninova, J; Giannopoulos, P; Vlahakos, D; Liapakis, G; Mavromoustakos, T; Matsoukas, J

>  <Institution>  (1) 
University of Patras

>  <Link to Ligand in BindingDB>  (1) 
http://www.bindingdb.org/bind/chemsearch/marvin/MolStructure.jsp?monomerid=50389547

>  <Link to Ligand-Target Pair in BindingDB>  (1) 
http://www.bindingdb.org/jsp/dbsearch/PrimarySearch_ki.jsp?energyterm=kJ/mole&tag=r21&monomerid=50389547&enzyme=Type-1+angiotensin+II+receptor&column=ki&startPg=0&Increment=50&submit=Search

>  <Ligand HET ID in PDB>  (1) 


>  <PDB ID(s) for Ligand-Target Complex>  (1) 


>  <PubChem CID of Ligand>  (1) 
10408794

>  <PubChem SID of Ligand>  (1) 
160868630

>  <ChEBI ID of Ligand>  (1) 


>  <ChEMBL ID of Ligand>  (1) 
CHEMBL2063984

>  <DrugBank ID of Ligand>  (1) 


>  <IUPHAR_GRAC ID of Ligand>  (1) 


>  <KEGG ID of Ligand>  (1) 


>  <ZINC ID of Ligand>  (1) 
ZINC38797280

>  <Number of Protein Chains in Target (bigger than 1 implies a multichain complex)>  (1) 
1

>  <BindingDB Target Chain Sequence>  (1) 
MILNSSTEDGIKRIQDDCPKAGRHNYIFVMIPTLYSIIFVVGIFGNSLVVIVIYFYMKLKTVASVFLLNLALADLCFLLTLPLWAVYTAMEYRWPFGNYLCKIASASVSFNLYASVFLLTCLSIDRYLAIVHPMKSRLRRTMLVAKVTCIIIWLLAGLASLPAIIHRNVFFIENTNITVCAFHYESQNSTLPIGLGLTKNILGFLFPFLIILTSYTLIWKALKKAYEIQKNKPRNDDIFKIIMAIVLFFFFSWIPHQIFTFLDVLIQLGIIRDCRIADIVDTAMPITICIAYFNNCLNPLFYGFLGKKFKRYFLQLLKYIPPKAKSHSNLSTKMSTLSYRPSDNVSSSTKKPAPCFEVE

>  <PDB ID(s) of Target Chain>  (1) 
6DO1,6OS0,6OS1,6OS2

>  <UniProt (SwissProt) Recommended Name of Target Chain>  (1) 
Type-1 angiotensin II receptor

>  <UniProt (SwissProt) Entry Name of Target Chain>  (1) 
AGTR1_HUMAN

>  <UniProt (SwissProt) Primary ID of Target Chain>  (1) 
P30556

>  <UniProt (SwissProt) Secondary ID(s) of Target Chain>  (1) 
Q13725 Q8TBK4

>  <UniProt (SwissProt) Alternative ID(s) of Target Chain>  (1) 


>  <UniProt (TrEMBL) Submitted Name of Target Chain>  (1) 


>  <UniProt (TrEMBL) Entry Name of Target Chain>  (1) 


>  <UniProt (TrEMBL) Primary ID of Target Chain>  (1) 


>  <UniProt (TrEMBL) Secondary ID(s) of Target Chain>  (1) 


>  <UniProt (TrEMBL) Alternative ID(s) of Target Chain>  (1) 


$$$$
