
     RDKit          2D

 39 42  0  0  0  0  0  0  0  0999 V2000
    2.0292    0.1083    0.0000 N   0  0  0  0  0  0  0  0  0  0  0  0
    1.0625    0.1083    0.0000 N   0  0  0  0  0  0  0  0  0  0  0  0
    1.5500   -0.2417    0.0000 C   0  0  0  0  0  0  0  0  0  0  0  0
    1.2500    0.6833    0.0000 C   0  0  0  0  0  0  0  0  0  0  0  0
    1.8500    0.6833    0.0000 C   0  0  0  0  0  0  0  0  0  0  0  0
    0.8917    1.1708    0.0000 C   0  0  0  0  0  0  0  0  0  0  0  0
   -0.1083    1.5583    0.0000 N   0  0  0  0  0  0  0  0  0  0  0  0
    0.3000    1.1083    0.0000 C   0  0  0  0  0  0  0  0  0  0  0  0
   -0.6583    0.7583    0.0000 N   0  0  0  0  0  0  0  0  0  0  0  0
    0.8667   -1.1667    0.0000 N   0  0  0  0  0  0  0  0  0  0  0  0
   -0.6500    1.3083    0.0000 C   0  0  0  0  0  0  0  0  0  0  0  0
    0.4000   -0.7167    0.0000 C   0  0  0  0  0  0  0  0  0  0  0  0
    0.5792   -1.7500    0.0000 C   0  0  0  0  0  0  0  0  0  0  0  0
   -0.0083    0.5875    0.0000 C   0  0  0  0  0  0  0  0  0  0  0  0
   -0.0625   -1.6542    0.0000 S   0  0  0  0  0  0  0  0  0  0  0  0
    0.4917   -0.0750    0.0000 C   0  0  0  0  0  0  0  0  0  0  0  0
   -0.1708   -1.0167    0.0000 C   0  0  0  0  0  0  0  0  0  0  0  0
    2.3000    2.8833    0.0000 C   0  0  0  0  0  0  0  0  0  0  0  0
    1.5542   -0.5875    0.0000 O   0  0  0  0  0  0  0  0  0  0  0  0
    0.0167    2.1458    0.0000 C   0  0  0  0  0  0  0  0  0  0  0  0
    2.1917    1.1708    0.0000 O   0  0  0  0  0  0  0  0  0  0  0  0
    1.7167    2.7375    0.0000 C   0  0  0  0  0  0  0  0  0  0  0  0
    2.4667    3.4583    0.0000 O   0  0  0  0  0  0  0  0  0  0  0  0
    2.6042   -0.0750    0.0000 C   0  0  0  0  0  0  0  0  0  0  0  0
    0.8792   -2.3167    0.0000 N   0  0  0  0  0  0  0  0  0  0  0  0
    1.6042    2.1083    0.0000 C   0  0  0  0  0  0  0  0  0  0  0  0
    1.2917    3.1500    0.0000 C   0  0  0  0  0  0  0  0  0  0  0  0
    0.5917    2.3333    0.0000 C   0  0  0  0  0  0  0  0  0  0  0  0
    2.7167    2.4458    0.0000 O   0  0  0  0  0  0  0  0  0  0  0  0
    1.0375    1.9208    0.0000 C   0  0  0  0  0  0  0  0  0  0  0  0
    0.7167    2.9083    0.0000 C   0  0  0  0  0  0  0  0  0  0  0  0
   -1.1708    1.6083    0.0000 C   0  0  0  0  0  0  0  0  0  0  0  0
    3.3000    2.5875    0.0000 C   0  0  0  0  0  0  0  0  0  0  0  0
    2.7292   -0.6625    0.0000 C   0  0  0  0  0  0  0  0  0  0  0  0
   -1.6958    1.3083    0.0000 C   0  0  0  0  0  0  0  0  0  0  0  0
   -2.2125    1.6083    0.0000 C   0  0  0  0  0  0  0  0  0  0  0  0
    3.3000   -0.8417    0.0000 C   0  0  0  0  0  0  0  0  0  0  0  0
   -2.7333    1.3083    0.0000 C   0  0  0  0  0  0  0  0  0  0  0  0
    3.4250   -1.4292    0.0000 C   0  0  0  0  0  0  0  0  0  0  0  0
  2  3  1  0
  3  1  1  0
  4  5  1  0
  5  1  1  0
  6  4  2  0
  7  8  1  0
  8  6  1  0
  9 14  1  0
 10 12  1  0
 11  7  1  0
 12 16  1  0
 13 10  2  0
 14  8  2  0
 15 17  1  0
 16  2  1  0
 17 12  2  0
 18 22  1  0
 19  3  2  0
 20  7  1  0
 21  5  2  0
 22 27  2  0
 23 18  2  0
 24  1  1  0
 25 13  1  0
 26 30  2  0
 27 31  1  0
 28 20  1  0
 29 18  1  0
 30 28  1  0
 31 28  2  0
 32 11  1  0
 33 29  1  0
 34 24  1  0
 35 32  1  0
 36 35  1  0
 37 34  1  0
 38 36  1  0
 39 37  1  0
  2  4  1  0
 11  9  2  0
 15 13  1  0
 26 22  1  0
M  END
>  <From>  (1) 
www.bindingDB.org

>  <BindingDB Reactant_set_id>  (1) 
51186033

>  <Ligand InChI>  (1) 
InChI=1S/C28H34N6O4S/c1-4-6-8-24-30-15-22(33(24)16-19-9-11-20(12-10-19)26(36)38-3)14-23-25(35)32(13-7-5-2)28(37)34(23)17-21-18-39-27(29)31-21/h9-12,14-15,18H,4-8,13,16-17H2,1-3H3,(H2,29,31)/b23-14-

>  <Ligand InChI Key>  (1) 
PFROVIOWLWMKBF-UCQKPKSFSA-N

>  <BindingDB MonomerID>  (1) 
50487653

>  <BindingDB Ligand Name>  (1) 
CHEMBL124913

>  <Target Name>  (1) 
Type-1 angiotensin II receptor

>  <Target Source Organism According to Curator or DataSource>  (1) 
Homo sapiens

>  <Ki (nM)>  (1) 


>  <IC50 (nM)>  (1) 
 1.2

>  <Kd (nM)>  (1) 


>  <EC50 (nM)>  (1) 


>  <kon (M-1-s-1)>  (1) 


>  <koff (s-1)>  (1) 


>  <pH>  (1) 


>  <Temp C>  (1) 


>  <Curation/DataSource>  (1) 
ChEMBL

>  <Article DOI>  (1) 
10.1007/s00044-009-9205-9

>  <BindingDB Entry DOI>  (1) 
10.7270/Q2CC13K2

>  <PMID>  (1) 


>  <PubChem AID>  (1) 


>  <Patent Number>  (1) 


>  <Authors>  (1) 
n/a

>  <Institution>  (1) 
n/a

>  <Link to Ligand in BindingDB>  (1) 
http://www.bindingdb.org/bind/chemsearch/marvin/MolStructure.jsp?monomerid=50487653

>  <Link to Ligand-Target Pair in BindingDB>  (1) 
http://www.bindingdb.org/jsp/dbsearch/PrimarySearch_ki.jsp?energyterm=kJ/mole&tag=r21&monomerid=50487653&enzyme=Type-1+angiotensin+II+receptor&column=ki&startPg=0&Increment=50&submit=Search

>  <Ligand HET ID in PDB>  (1) 


>  <PDB ID(s) for Ligand-Target Complex>  (1) 


>  <PubChem CID of Ligand>  (1) 
10325267

>  <PubChem SID of Ligand>  (1) 
433954918

>  <ChEBI ID of Ligand>  (1) 


>  <ChEMBL ID of Ligand>  (1) 


>  <DrugBank ID of Ligand>  (1) 


>  <IUPHAR_GRAC ID of Ligand>  (1) 


>  <KEGG ID of Ligand>  (1) 


>  <ZINC ID of Ligand>  (1) 


>  <Number of Protein Chains in Target (bigger than 1 implies a multichain complex)>  (1) 
1

>  <BindingDB Target Chain Sequence>  (1) 
MILNSSTEDGIKRIQDDCPKAGRHNYIFVMIPTLYSIIFVVGIFGNSLVVIVIYFYMKLKTVASVFLLNLALADLCFLLTLPLWAVYTAMEYRWPFGNYLCKIASASVSFNLYASVFLLTCLSIDRYLAIVHPMKSRLRRTMLVAKVTCIIIWLLAGLASLPAIIHRNVFFIENTNITVCAFHYESQNSTLPIGLGLTKNILGFLFPFLIILTSYTLIWKALKKAYEIQKNKPRNDDIFKIIMAIVLFFFFSWIPHQIFTFLDVLIQLGIIRDCRIADIVDTAMPITICIAYFNNCLNPLFYGFLGKKFKRYFLQLLKYIPPKAKSHSNLSTKMSTLSYRPSDNVSSSTKKPAPCFEVE

>  <PDB ID(s) of Target Chain>  (1) 
6DO1,6OS0,6OS1,6OS2

>  <UniProt (SwissProt) Recommended Name of Target Chain>  (1) 
Type-1 angiotensin II receptor

>  <UniProt (SwissProt) Entry Name of Target Chain>  (1) 
AGTR1_HUMAN

>  <UniProt (SwissProt) Primary ID of Target Chain>  (1) 
P30556

>  <UniProt (SwissProt) Secondary ID(s) of Target Chain>  (1) 
Q13725 Q8TBK4

>  <UniProt (SwissProt) Alternative ID(s) of Target Chain>  (1) 


>  <UniProt (TrEMBL) Submitted Name of Target Chain>  (1) 


>  <UniProt (TrEMBL) Entry Name of Target Chain>  (1) 


>  <UniProt (TrEMBL) Primary ID of Target Chain>  (1) 


>  <UniProt (TrEMBL) Secondary ID(s) of Target Chain>  (1) 


>  <UniProt (TrEMBL) Alternative ID(s) of Target Chain>  (1) 


$$$$
