
     RDKit          2D

 35 40  0  0  0  0  0  0  0  0999 V2000
   -7.0755  -17.1248    0.0000 C   0  0  0  0  0  0  0  0  0  0  0  0
   -7.0777  -16.3009    0.0000 C   0  0  0  0  0  0  0  0  0  0  0  0
   -6.3730  -17.5512    0.0000 C   0  0  0  0  0  0  0  0  0  0  0  0
   -6.3571  -15.9062    0.0000 C   0  0  0  0  0  0  0  0  0  0  0  0
   -6.3468  -15.0750    0.0000 C   0  0  0  0  0  0  0  0  0  0  0  0
   -5.6396  -16.3252    0.0000 C   0  0  0  0  0  0  0  0  0  0  0  0
   -5.6182  -14.6730    0.0000 C   0  0  0  0  0  0  0  0  0  0  0  0
   -7.8084  -17.5266    0.0000 C   0  0  0  0  0  0  0  0  0  0  0  0
   -7.7882  -15.8746    0.0000 C   0  0  0  0  0  0  0  0  0  0  0  0
   -8.5148  -17.1077    0.0000 C   0  0  0  0  0  0  0  0  0  0  0  0
   -8.4986  -16.2828    0.0000 C   0  0  0  0  0  0  0  0  0  0  0  0
   -4.9110  -15.0993    0.0000 C   0  0  0  0  0  0  0  0  0  0  0  0
   -4.9224  -15.9163    0.0000 C   0  0  0  0  0  0  0  0  0  0  0  0
   -4.1493  -16.1795    0.0000 C   0  0  0  0  0  0  0  0  0  0  0  0
   -3.6597  -15.5255    0.0000 C   0  0  0  0  0  0  0  0  0  0  0  0
   -4.1299  -14.8574    0.0000 C   0  0  0  0  0  0  0  0  0  0  0  0
   -3.8655  -14.0755    0.0000 N   0  0  0  0  0  0  0  0  0  0  0  0
   -3.8481  -12.7440    0.0000 N   0  0  0  0  0  0  0  0  0  0  0  0
   -3.0799  -13.8281    0.0000 C   0  0  0  0  0  0  0  0  0  0  0  0
   -4.3396  -13.4026    0.0000 C   0  0  0  0  0  0  0  0  0  0  0  0
   -3.0614  -13.0108    0.0000 C   0  0  0  0  0  0  0  0  0  0  0  0
   -1.6554  -13.8521    0.0000 C   0  0  0  0  0  0  0  0  0  0  0  0
   -2.3734  -14.2557    0.0000 N   0  0  0  0  0  0  0  0  0  0  0  0
   -2.3538  -12.6009    0.0000 C   0  0  0  0  0  0  0  0  0  0  0  0
   -1.6434  -13.0212    0.0000 C   0  0  0  0  0  0  0  0  0  0  0  0
   -5.1633  -13.3950    0.0000 C   0  0  0  0  0  0  0  0  0  0  0  0
   -2.3461  -11.7771    0.0000 C   0  0  0  0  0  0  0  0  0  0  0  0
   -5.5604  -12.6660    0.0000 C   0  0  0  0  0  0  0  0  0  0  0  0
   -6.3842  -18.3761    0.0000 N   0  0  0  0  0  0  0  0  0  0  0  0
   -5.6027  -18.6480    0.0000 N   0  0  0  0  0  0  0  0  0  0  0  0
   -5.1031  -17.9905    0.0000 N   0  0  0  0  0  0  0  0  0  0  0  0
   -5.5740  -17.3123    0.0000 N   0  0  0  0  0  0  0  0  0  0  0  0
   -0.9457  -14.2742    0.0000 C   0  0  0  0  0  0  0  0  0  0  0  0
   -0.2256  -13.8708    0.0000 C   0  0  0  0  0  0  0  0  0  0  0  0
   -5.5882  -14.1029    0.0000 C   0  0  0  0  0  0  0  0  0  0  0  0
  5  7  2  0
  6 13  1  0
  7 12  1  0
  8  1  2  0
  9  2  2  0
 10 11  2  0
 11  9  1  0
  6  4  2  0
  8 10  1  0
 12 13  2  0
  1  2  1  0
 17 19  1  0
 18 21  1  0
 19 23  2  0
 20 17  1  0
 21 24  2  0
 23 22  1  0
 24 25  1  0
 25 22  2  0
 26 20  1  0
 27 24  1  0
 28 26  1  0
 19 21  1  0
 18 20  2  0
 16 17  1  1
 31 32  1  0
  2  4  1  0
 29 30  1  0
  3  1  1  0
  4  5  1  0
 13 14  1  0
  3 29  1  0
 30 31  2  0
 32  3  2  0
 14 15  1  0
 22 33  1  0
 16 15  1  0
 33 34  1  0
 16 12  1  0
 26 35  1  0
M  END
>  <From>  (1) 
www.bindingDB.org

>  <BindingDB Reactant_set_id>  (1) 
50647674

>  <Ligand InChI>  (1) 
InChI=1S/C28H29N7/c1-5-20-14-17(4)25-28(29-20)35(27(30-25)16(2)3)24-13-11-19-15-18(10-12-22(19)24)21-8-6-7-9-23(21)26-31-33-34-32-26/h6-10,12,14-16,24H,5,11,13H2,1-4H3,(H,31,32,33,34)/t24-/m0/s1

>  <Ligand InChI Key>  (1) 
BYKYONJSKPPTTO-DEOSSOPVSA-N

>  <BindingDB MonomerID>  (1) 
50347573

>  <BindingDB Ligand Name>  (1) 
CHEMBL1801739

>  <Target Name>  (1) 
Type-1 angiotensin II receptor

>  <Target Source Organism According to Curator or DataSource>  (1) 
Homo sapiens

>  <Ki (nM)>  (1) 


>  <IC50 (nM)>  (1) 
 16.9

>  <Kd (nM)>  (1) 


>  <EC50 (nM)>  (1) 


>  <kon (M-1-s-1)>  (1) 


>  <koff (s-1)>  (1) 


>  <pH>  (1) 


>  <Temp C>  (1) 


>  <Curation/DataSource>  (1) 
ChEMBL

>  <Article DOI>  (1) 
10.1021/jm200409s

>  <BindingDB Entry DOI>  (1) 
10.7270/Q2SB463J

>  <PMID>  (1) 
21557540

>  <PubChem AID>  (1) 


>  <Patent Number>  (1) 


>  <Authors>  (1) 
Casimiro-Garcia, A; Filzen, GF; Flynn, D; Bigge, CF; Chen, J; Davis, JA; Dudley, DA; Edmunds, JJ; Esmaeil, N; Geyer, A; Heemstra, RJ; Jalaie, M; Ohren, JF; Ostroski, R; Ellis, T; Schaum, RP; Stoner, C

>  <Institution>  (1) 
Pfizer Inc

>  <Link to Ligand in BindingDB>  (1) 
http://www.bindingdb.org/bind/chemsearch/marvin/MolStructure.jsp?monomerid=50347573

>  <Link to Ligand-Target Pair in BindingDB>  (1) 
http://www.bindingdb.org/jsp/dbsearch/PrimarySearch_ki.jsp?energyterm=kJ/mole&tag=r21&monomerid=50347573&enzyme=Type-1+angiotensin+II+receptor&column=ki&startPg=0&Increment=50&submit=Search

>  <Ligand HET ID in PDB>  (1) 


>  <PDB ID(s) for Ligand-Target Complex>  (1) 


>  <PubChem CID of Ligand>  (1) 
53309275

>  <PubChem SID of Ligand>  (1) 
136354259

>  <ChEBI ID of Ligand>  (1) 


>  <ChEMBL ID of Ligand>  (1) 
CHEMBL1801739

>  <DrugBank ID of Ligand>  (1) 


>  <IUPHAR_GRAC ID of Ligand>  (1) 


>  <KEGG ID of Ligand>  (1) 


>  <ZINC ID of Ligand>  (1) 
ZINC72109150

>  <Number of Protein Chains in Target (bigger than 1 implies a multichain complex)>  (1) 
1

>  <BindingDB Target Chain Sequence>  (1) 
MILNSSTEDGIKRIQDDCPKAGRHNYIFVMIPTLYSIIFVVGIFGNSLVVIVIYFYMKLKTVASVFLLNLALADLCFLLTLPLWAVYTAMEYRWPFGNYLCKIASASVSFNLYASVFLLTCLSIDRYLAIVHPMKSRLRRTMLVAKVTCIIIWLLAGLASLPAIIHRNVFFIENTNITVCAFHYESQNSTLPIGLGLTKNILGFLFPFLIILTSYTLIWKALKKAYEIQKNKPRNDDIFKIIMAIVLFFFFSWIPHQIFTFLDVLIQLGIIRDCRIADIVDTAMPITICIAYFNNCLNPLFYGFLGKKFKRYFLQLLKYIPPKAKSHSNLSTKMSTLSYRPSDNVSSSTKKPAPCFEVE

>  <PDB ID(s) of Target Chain>  (1) 
6DO1,6OS0,6OS1,6OS2

>  <UniProt (SwissProt) Recommended Name of Target Chain>  (1) 
Type-1 angiotensin II receptor

>  <UniProt (SwissProt) Entry Name of Target Chain>  (1) 
AGTR1_HUMAN

>  <UniProt (SwissProt) Primary ID of Target Chain>  (1) 
P30556

>  <UniProt (SwissProt) Secondary ID(s) of Target Chain>  (1) 
Q13725 Q8TBK4

>  <UniProt (SwissProt) Alternative ID(s) of Target Chain>  (1) 


>  <UniProt (TrEMBL) Submitted Name of Target Chain>  (1) 


>  <UniProt (TrEMBL) Entry Name of Target Chain>  (1) 


>  <UniProt (TrEMBL) Primary ID of Target Chain>  (1) 


>  <UniProt (TrEMBL) Secondary ID(s) of Target Chain>  (1) 


>  <UniProt (TrEMBL) Alternative ID(s) of Target Chain>  (1) 


$$$$
