
     RDKit          2D

 46 50  0  0  0  0  0  0  0  0999 V2000
    5.8875  -14.4167    0.0000 S   0  0  0  0  0  0  0  0  0  0  0  0
    1.5417  -12.9250    0.0000 C   0  0  0  0  0  0  0  0  0  0  0  0
    2.3375  -13.1792    0.0000 N   0  0  0  0  0  0  0  0  0  0  0  0
    1.5417  -12.0917    0.0000 C   0  0  0  0  0  0  0  0  0  0  0  0
    2.3292  -11.8292    0.0000 N   0  0  0  0  0  0  0  0  0  0  0  0
    2.8167  -12.5042    0.0000 C   0  0  0  0  0  0  0  0  0  0  0  0
    0.8250  -13.3375    0.0000 N   0  0  0  0  0  0  0  0  0  0  0  0
    6.7125  -14.4167    0.0000 N   0  0  0  0  0  0  0  0  0  0  0  0
    0.8250  -11.6792    0.0000 C   0  0  0  0  0  0  0  0  0  0  0  0
    0.1125  -12.0917    0.0000 C   0  0  0  0  0  0  0  0  0  0  0  0
    5.8917  -15.2417    0.0000 C   0  0  0  0  0  0  0  0  0  0  0  0
    0.1125  -12.9250    0.0000 C   0  0  0  0  0  0  0  0  0  0  0  0
    5.1792  -15.6500    0.0000 C   0  0  0  0  0  0  0  0  0  0  0  0
   -0.6000  -11.6875    0.0000 N   0  0  0  0  0  0  0  0  0  0  0  0
    7.1292  -13.7042    0.0000 C   0  0  0  0  0  0  0  0  0  0  0  0
    5.8917  -13.5125    0.0000 O   0  0  0  0  0  0  0  0  0  0  0  0
    5.0792  -14.4167    0.0000 O   0  0  0  0  0  0  0  0  0  0  0  0
    2.3292  -14.0000    0.0000 C   0  0  0  0  0  0  0  0  0  0  0  0
   -1.3208  -12.1000    0.0000 C   0  0  0  0  0  0  0  0  0  0  0  0
    4.4667  -15.2417    0.0000 C   0  0  0  0  0  0  0  0  0  0  0  0
    6.7167  -12.9917    0.0000 O   0  0  0  0  0  0  0  0  0  0  0  0
   -1.3208  -12.9250    0.0000 O   0  0  0  0  0  0  0  0  0  0  0  0
    3.7500  -15.6500    0.0000 C   0  0  0  0  0  0  0  0  0  0  0  0
    4.4625  -14.4125    0.0000 C   0  0  0  0  0  0  0  0  0  0  0  0
    3.0417  -14.4125    0.0000 C   0  0  0  0  0  0  0  0  0  0  0  0
    7.9542  -13.7042    0.0000 C   0  0  0  0  0  0  0  0  0  0  0  0
    3.6417  -12.4917    0.0000 C   0  0  0  0  0  0  0  0  0  0  0  0
    0.8167  -10.8542    0.0000 C   0  0  0  0  0  0  0  0  0  0  0  0
    3.7542  -14.0042    0.0000 C   0  0  0  0  0  0  0  0  0  0  0  0
    3.0417  -15.2375    0.0000 C   0  0  0  0  0  0  0  0  0  0  0  0
    8.3667  -12.9917    0.0000 C   0  0  0  0  0  0  0  0  0  0  0  0
    6.6042  -15.6500    0.0000 C   0  0  0  0  0  0  0  0  0  0  0  0
   -0.6083  -13.3375    0.0000 C   0  0  0  0  0  0  0  0  0  0  0  0
    5.1792  -16.4792    0.0000 C   0  0  0  0  0  0  0  0  0  0  0  0
    9.1917  -13.0000    0.0000 C   0  0  0  0  0  0  0  0  0  0  0  0
   -2.0333  -11.6875    0.0000 C   0  0  0  0  0  0  0  0  0  0  0  0
    4.0542  -11.7750    0.0000 C   0  0  0  0  0  0  0  0  0  0  0  0
    9.6792  -13.6667    0.0000 C   0  0  0  0  0  0  0  0  0  0  0  0
    9.6792  -12.3292    0.0000 C   0  0  0  0  0  0  0  0  0  0  0  0
   -2.7458  -12.1000    0.0000 C   0  0  0  0  0  0  0  0  0  0  0  0
    6.6042  -16.4792    0.0000 C   0  0  0  0  0  0  0  0  0  0  0  0
    5.8917  -16.8917    0.0000 C   0  0  0  0  0  0  0  0  0  0  0  0
    4.8750  -11.7667    0.0000 C   0  0  0  0  0  0  0  0  0  0  0  0
   -3.4583  -11.6875    0.0000 C   0  0  0  0  0  0  0  0  0  0  0  0
   10.4667  -12.5917    0.0000 C   0  0  0  0  0  0  0  0  0  0  0  0
   10.4667  -13.4167    0.0000 C   0  0  0  0  0  0  0  0  0  0  0  0
  2  3  1  0
  3 18  1  0
  4  2  2  0
  5  6  2  0
  6  3  1  0
  7  2  1  0
  8  1  1  0
  9  4  1  0
 10 12  1  0
 11  1  1  0
 12  7  2  0
 13 11  1  0
 14 10  1  0
 15  8  1  0
 16  1  2  0
 17  1  2  0
 18 25  1  0
 19 14  1  0
 20 13  1  0
 21 15  2  0
 22 19  2  0
 23 20  2  0
 24 20  1  0
 25 29  1  0
 26 15  1  0
 27  6  1  0
 28  9  1  0
 29 24  2  0
 30 23  1  0
 31 26  1  0
 32 11  2  0
 33 12  1  0
 34 13  2  0
 35 31  1  0
 36 19  1  0
 37 27  1  0
 38 35  1  0
 39 35  1  0
 40 36  1  0
 41 32  1  0
 42 41  2  0
 43 37  1  0
 44 40  1  0
 45 39  1  0
 46 38  1  0
 42 34  1  0
 25 30  2  0
 45 46  1  0
  4  5  1  0
 10  9  2  0
M  END
>  <From>  (1) 
www.bindingDB.org

>  <BindingDB Reactant_set_id>  (1) 
50467410

>  <Ligand InChI>  (1) 
InChI=1S/C36H45N5O4S/c1-5-11-31-38-35-24(3)34(39-32(42)12-6-2)25(4)37-36(35)41(31)23-27-17-20-28(21-18-27)29-15-9-10-16-30(29)46(44,45)40-33(43)22-19-26-13-7-8-14-26/h9-10,15-18,20-21,26H,5-8,11-14,19,22-23H2,1-4H3,(H,39,42)(H,40,43)

>  <Ligand InChI Key>  (1) 
QIFLIBIMGFOKBT-UHFFFAOYSA-N

>  <BindingDB MonomerID>  (1) 
50282279

>  <BindingDB Ligand Name>  (1) 
CHEMBL304946::N-{3-[2'-(3-Cyclopentyl-propionylsulfamoyl)-biphenyl-4-ylmethyl]-5,7-dimethyl-2-propyl-3H-imidazo[4,5-b]pyridin-6-yl}-butyramide

>  <Target Name>  (1) 
Type-1 angiotensin II receptor

>  <Target Source Organism According to Curator or DataSource>  (1) 
Oryctolagus cuniculus

>  <Ki (nM)>  (1) 


>  <IC50 (nM)>  (1) 
 0.26

>  <Kd (nM)>  (1) 


>  <EC50 (nM)>  (1) 


>  <kon (M-1-s-1)>  (1) 


>  <koff (s-1)>  (1) 


>  <pH>  (1) 


>  <Temp C>  (1) 


>  <Curation/DataSource>  (1) 
ChEMBL

>  <Article DOI>  (1) 
10.1016/S0960-894X(01)81115-X

>  <BindingDB Entry DOI>  (1) 
10.7270/Q2G73DPF

>  <PMID>  (1) 


>  <PubChem AID>  (1) 


>  <Patent Number>  (1) 


>  <Authors>  (1) 
Mantlo, NB; Kim, D; Ondeyka, D; Chang, RS; Kivlighn, SD; Siegl, PK; Greenlee, WJ

>  <Institution>  (1) 
TBA

>  <Link to Ligand in BindingDB>  (1) 
http://www.bindingdb.org/bind/chemsearch/marvin/MolStructure.jsp?monomerid=50282279

>  <Link to Ligand-Target Pair in BindingDB>  (1) 
http://www.bindingdb.org/jsp/dbsearch/PrimarySearch_ki.jsp?energyterm=kJ/mole&tag=r21&monomerid=50282279&enzyme=Type-1+angiotensin+II+receptor&column=ki&startPg=0&Increment=50&submit=Search

>  <Ligand HET ID in PDB>  (1) 


>  <PDB ID(s) for Ligand-Target Complex>  (1) 


>  <PubChem CID of Ligand>  (1) 
19754068

>  <PubChem SID of Ligand>  (1) 
104123953

>  <ChEBI ID of Ligand>  (1) 


>  <ChEMBL ID of Ligand>  (1) 
CHEMBL304946

>  <DrugBank ID of Ligand>  (1) 


>  <IUPHAR_GRAC ID of Ligand>  (1) 


>  <KEGG ID of Ligand>  (1) 


>  <ZINC ID of Ligand>  (1) 
ZINC26282304

>  <Number of Protein Chains in Target (bigger than 1 implies a multichain complex)>  (1) 
1

>  <BindingDB Target Chain Sequence>  (1) 
MMLNSSTEDGIKRIQDDCPKAGRHNYIFVMIPTLYSIIFVVGIFGNSLAVIVIYFYMKLKTVASVFLLNLALADLCFLLTLPLWAVYTAMEYRWPFGNYLCKIASASVSFNLYASVFLLTCLSIDRYLAIVHPMKSRLRRTMLVAKVTCIIIWLLAGLASLPAIIHRNVFFIENTNITVCAFHYESQNSTLPIGLGLTKNILGFLFPFLIILTSYTLIWKALKKAYEIQKNKPRNDDIFKIIMAIVLFFFFSWVPHQIFTFLDVLIQLGVIHDCRIADIVDTAMPITICIAYFNNCLNPLFYGFLGKKFKKYFLQLLKYIPPKAKSHSNLSTKMSTLSYRPSDNVSSSSKKPVPCFEVE

>  <PDB ID(s) of Target Chain>  (1) 
6DO1,6OS0,6OS1,6OS2

>  <UniProt (SwissProt) Recommended Name of Target Chain>  (1) 
Type-1 angiotensin II receptor

>  <UniProt (SwissProt) Entry Name of Target Chain>  (1) 
AGTR1_RABIT

>  <UniProt (SwissProt) Primary ID of Target Chain>  (1) 
P34976

>  <UniProt (SwissProt) Secondary ID(s) of Target Chain>  (1) 


>  <UniProt (SwissProt) Alternative ID(s) of Target Chain>  (1) 


>  <UniProt (TrEMBL) Submitted Name of Target Chain>  (1) 


>  <UniProt (TrEMBL) Entry Name of Target Chain>  (1) 


>  <UniProt (TrEMBL) Primary ID of Target Chain>  (1) 


>  <UniProt (TrEMBL) Secondary ID(s) of Target Chain>  (1) 


>  <UniProt (TrEMBL) Alternative ID(s) of Target Chain>  (1) 


$$$$
