
     RDKit          2D

 43 48  0  0  0  0  0  0  0  0999 V2000
   -6.0793  -17.4858    0.0000 C   0  0  0  0  0  0  0  0  0  0  0  0
   -6.0864  -18.3131    0.0000 C   0  0  0  0  0  0  0  0  0  0  0  0
   -5.3654  -18.7260    0.0000 C   0  0  0  0  0  0  0  0  0  0  0  0
   -4.6490  -18.3127    0.0000 C   0  0  0  0  0  0  0  0  0  0  0  0
   -4.6518  -17.4821    0.0000 C   0  0  0  0  0  0  0  0  0  0  0  0
   -5.3672  -17.0730    0.0000 C   0  0  0  0  0  0  0  0  0  0  0  0
   -2.5091  -17.0663    0.0000 N   0  0  0  0  0  0  0  0  0  0  0  0
   -1.7939  -17.4777    0.0000 C   0  0  0  0  0  0  0  0  0  0  0  0
   -1.0801  -17.0640    0.0000 C   0  0  0  0  0  0  0  0  0  0  0  0
   -1.7926  -18.3027    0.0000 O   0  0  0  0  0  0  0  0  0  0  0  0
   -0.3663  -17.4768    0.0000 C   0  0  0  0  0  0  0  0  0  0  0  0
   -0.3740  -15.8268    0.0000 C   0  0  0  0  0  0  0  0  0  0  0  0
   -1.0844  -16.2420    0.0000 C   0  0  0  0  0  0  0  0  0  0  0  0
   -0.3782  -15.0018    0.0000 C   0  0  0  0  0  0  0  0  0  0  0  0
    0.3462  -16.2380    0.0000 C   0  0  0  0  0  0  0  0  0  0  0  0
    0.3485  -17.0625    0.0000 C   0  0  0  0  0  0  0  0  0  0  0  0
    1.1325  -17.3150    0.0000 N   0  0  0  0  0  0  0  0  0  0  0  0
    1.6162  -16.6467    0.0000 C   0  0  0  0  0  0  0  0  0  0  0  0
    1.1297  -15.9811    0.0000 N   0  0  0  0  0  0  0  0  0  0  0  0
    2.4412  -16.6444    0.0000 C   0  0  0  0  0  0  0  0  0  0  0  0
    2.8517  -15.9288    0.0000 C   0  0  0  0  0  0  0  0  0  0  0  0
    3.6767  -15.9265    0.0000 C   0  0  0  0  0  0  0  0  0  0  0  0
    1.1344  -18.1400    0.0000 C   0  0  0  0  0  0  0  0  0  0  0  0
    1.8498  -18.5509    0.0000 C   0  0  0  0  0  0  0  0  0  0  0  0
    1.8469  -19.3752    0.0000 C   0  0  0  0  0  0  0  0  0  0  0  0
    2.5615  -19.7860    0.0000 C   0  0  0  0  0  0  0  0  0  0  0  0
    3.2760  -19.3718    0.0000 C   0  0  0  0  0  0  0  0  0  0  0  0
    3.2715  -18.5426    0.0000 C   0  0  0  0  0  0  0  0  0  0  0  0
    2.5563  -18.1355    0.0000 C   0  0  0  0  0  0  0  0  0  0  0  0
    3.9902  -19.7791    0.0000 C   0  0  0  0  0  0  0  0  0  0  0  0
    3.9919  -20.6053    0.0000 C   0  0  0  0  0  0  0  0  0  0  0  0
    4.7070  -21.0151    0.0000 C   0  0  0  0  0  0  0  0  0  0  0  0
    5.4210  -20.5999    0.0000 C   0  0  0  0  0  0  0  0  0  0  0  0
    5.4153  -19.7707    0.0000 C   0  0  0  0  0  0  0  0  0  0  0  0
    4.6996  -19.3646    0.0000 C   0  0  0  0  0  0  0  0  0  0  0  0
    4.6943  -18.5396    0.0000 C   0  0  0  0  0  0  0  0  0  0  0  0
    5.3549  -18.0504    0.0000 N   0  0  0  0  0  0  0  0  0  0  0  0
    5.0950  -17.2674    0.0000 N   0  0  0  0  0  0  0  0  0  0  0  0
    4.2699  -17.2726    0.0000 N   0  0  0  0  0  0  0  0  0  0  0  0
    4.0201  -18.0589    0.0000 N   0  0  0  0  0  0  0  0  0  0  0  0
   -3.2229  -17.4799    0.0000 C   0  0  0  0  0  0  0  0  0  0  0  0
   -3.9380  -17.0685    0.0000 C   0  0  0  0  0  0  0  0  0  0  0  0
   -3.9393  -16.2435    0.0000 C   0  0  0  0  0  0  0  0  0  0  0  0
 20 21  1  0
  9 11  2  0
 21 22  1  0
 11 16  1  0
 17 23  1  0
  5  6  1  0
 23 24  1  0
 15 12  1  0
 24 25  2  0
  6  1  2  0
 25 26  1  0
 12 13  2  0
 26 27  2  0
 13  9  1  0
 27 28  1  0
  1  2  1  0
 28 29  2  0
 29 24  1  0
 12 14  1  0
 15 16  2  0
 30 31  2  0
  3  4  1  0
 31 32  1  0
  7  8  1  0
 32 33  2  0
 33 34  1  0
  8  9  1  0
 34 35  2  0
 35 30  1  0
 27 30  1  0
  4  5  2  0
 35 36  1  0
 36 37  1  0
 16 17  1  0
 17 18  1  0
 18 19  2  0
 19 15  1  0
 37 38  1  0
 38 39  2  0
 39 40  1  0
 40 36  2  0
  8 10  2  0
  7 41  1  0
 18 20  1  0
 41 42  1  0
 42  5  1  0
  2  3  2  0
 42 43  1  0
M  END
>  <From>  (1) 
www.bindingDB.org

>  <BindingDB Reactant_set_id>  (1) 
50947178

>  <Ligand InChI>  (1) 
InChI=1S/C35H35N7O/c1-4-10-32-37-33-23(2)19-28(35(43)36-21-24(3)26-11-6-5-7-12-26)20-31(33)42(32)22-25-15-17-27(18-16-25)29-13-8-9-14-30(29)34-38-40-41-39-34/h5-9,11-20,24H,4,10,21-22H2,1-3H3,(H,36,43)(H,38,39,40,41)

>  <Ligand InChI Key>  (1) 
SESMVBDEQODYAX-UHFFFAOYSA-N

>  <BindingDB MonomerID>  (1) 
50388737

>  <BindingDB Ligand Name>  (1) 
CHEMBL2058860

>  <Target Name>  (1) 
Type-1 angiotensin II receptor

>  <Target Source Organism According to Curator or DataSource>  (1) 
Homo sapiens

>  <Ki (nM)>  (1) 


>  <IC50 (nM)>  (1) 
 0.9

>  <Kd (nM)>  (1) 


>  <EC50 (nM)>  (1) 


>  <kon (M-1-s-1)>  (1) 


>  <koff (s-1)>  (1) 


>  <pH>  (1) 


>  <Temp C>  (1) 


>  <Curation/DataSource>  (1) 
ChEMBL

>  <Article DOI>  (1) 
10.1016/j.bmc.2012.05.056

>  <BindingDB Entry DOI>  (1) 
10.7270/Q2GT5P7J

>  <PMID>  (1) 
22727371

>  <PubChem AID>  (1) 


>  <Patent Number>  (1) 


>  <Authors>  (1) 
Zhang, J; Wang, JL; Zhou, ZM; Li, ZH; Xue, WZ; Xu, D; Hao, LP; Han, XF; Fei, F; Liu, T; Liang, AH

>  <Institution>  (1) 
School of Chemical Engineering & the Environment

>  <Link to Ligand in BindingDB>  (1) 
http://www.bindingdb.org/bind/chemsearch/marvin/MolStructure.jsp?monomerid=50388737

>  <Link to Ligand-Target Pair in BindingDB>  (1) 
http://www.bindingdb.org/jsp/dbsearch/PrimarySearch_ki.jsp?energyterm=kJ/mole&tag=r21&monomerid=50388737&enzyme=Type-1+angiotensin+II+receptor&column=ki&startPg=0&Increment=50&submit=Search

>  <Ligand HET ID in PDB>  (1) 


>  <PDB ID(s) for Ligand-Target Complex>  (1) 


>  <PubChem CID of Ligand>  (1) 
70682146

>  <PubChem SID of Ligand>  (1) 
160867820

>  <ChEBI ID of Ligand>  (1) 


>  <ChEMBL ID of Ligand>  (1) 
CHEMBL2058860

>  <DrugBank ID of Ligand>  (1) 


>  <IUPHAR_GRAC ID of Ligand>  (1) 


>  <KEGG ID of Ligand>  (1) 


>  <ZINC ID of Ligand>  (1) 
ZINC84708796

>  <Number of Protein Chains in Target (bigger than 1 implies a multichain complex)>  (1) 
1

>  <BindingDB Target Chain Sequence>  (1) 
MILNSSTEDGIKRIQDDCPKAGRHNYIFVMIPTLYSIIFVVGIFGNSLVVIVIYFYMKLKTVASVFLLNLALADLCFLLTLPLWAVYTAMEYRWPFGNYLCKIASASVSFNLYASVFLLTCLSIDRYLAIVHPMKSRLRRTMLVAKVTCIIIWLLAGLASLPAIIHRNVFFIENTNITVCAFHYESQNSTLPIGLGLTKNILGFLFPFLIILTSYTLIWKALKKAYEIQKNKPRNDDIFKIIMAIVLFFFFSWIPHQIFTFLDVLIQLGIIRDCRIADIVDTAMPITICIAYFNNCLNPLFYGFLGKKFKRYFLQLLKYIPPKAKSHSNLSTKMSTLSYRPSDNVSSSTKKPAPCFEVE

>  <PDB ID(s) of Target Chain>  (1) 
6DO1,6OS0,6OS1,6OS2

>  <UniProt (SwissProt) Recommended Name of Target Chain>  (1) 
Type-1 angiotensin II receptor

>  <UniProt (SwissProt) Entry Name of Target Chain>  (1) 
AGTR1_HUMAN

>  <UniProt (SwissProt) Primary ID of Target Chain>  (1) 
P30556

>  <UniProt (SwissProt) Secondary ID(s) of Target Chain>  (1) 
Q13725 Q8TBK4

>  <UniProt (SwissProt) Alternative ID(s) of Target Chain>  (1) 


>  <UniProt (TrEMBL) Submitted Name of Target Chain>  (1) 


>  <UniProt (TrEMBL) Entry Name of Target Chain>  (1) 


>  <UniProt (TrEMBL) Primary ID of Target Chain>  (1) 


>  <UniProt (TrEMBL) Secondary ID(s) of Target Chain>  (1) 


>  <UniProt (TrEMBL) Alternative ID(s) of Target Chain>  (1) 


$$$$
