
     RDKit          2D

 36 40  0  0  0  0  0  0  0  0999 V2000
   -1.2296   -6.6287    0.0000 N   0  0  0  0  0  0  0  0  0  0  0  0
   -1.7100   -5.9595    0.0000 C   0  0  0  0  0  0  0  0  0  0  0  0
   -1.2296   -5.2903    0.0000 N   0  0  0  0  0  0  0  0  0  0  0  0
   -0.4403   -6.3713    0.0000 C   0  0  0  0  0  0  0  0  0  0  0  0
    2.0647   -9.7628    0.0000 C   0  0  0  0  0  0  0  0  0  0  0  0
    0.2745   -6.7831    0.0000 C   0  0  0  0  0  0  0  0  0  0  0  0
    2.0075   -8.4302    0.0000 N   0  0  0  0  0  0  0  0  0  0  0  0
    1.5500   -9.1165    0.0000 N   0  0  0  0  0  0  0  0  0  0  0  0
    2.8025   -8.6533    0.0000 N   0  0  0  0  0  0  0  0  0  0  0  0
   -0.4403   -5.5419    0.0000 C   0  0  0  0  0  0  0  0  0  0  0  0
    2.8368   -9.4711    0.0000 N   0  0  0  0  0  0  0  0  0  0  0  0
    1.8416  -10.5578    0.0000 C   0  0  0  0  0  0  0  0  0  0  0  0
    0.2974   -7.4694    0.0000 C   0  0  0  0  0  0  0  0  0  0  0  0
   -3.7747   -5.2503    0.0000 C   0  0  0  0  0  0  0  0  0  0  0  0
    1.0524  -10.7579    0.0000 C   0  0  0  0  0  0  0  0  0  0  0  0
   -1.2467   -8.3959    0.0000 C   0  0  0  0  0  0  0  0  0  0  0  0
   -2.5336   -5.9595    0.0000 O   0  0  0  0  0  0  0  0  0  0  0  0
    0.4804  -10.1631    0.0000 C   0  0  0  0  0  0  0  0  0  0  0  0
   -0.3432   -7.8582    0.0000 O   0  0  0  0  0  0  0  0  0  0  0  0
   -2.9511   -5.2503    0.0000 C   0  0  0  0  0  0  0  0  0  0  0  0
    0.7779   -9.4368    0.0000 C   0  0  0  0  0  0  0  0  0  0  0  0
   -0.3202  -10.3690    0.0000 C   0  0  0  0  0  0  0  0  0  0  0  0
   -4.5239   -5.2503    0.0000 F   0  0  0  0  0  0  0  0  0  0  0  0
   -4.3180   -4.5811    0.0000 F   0  0  0  0  0  0  0  0  0  0  0  0
   -4.3180   -5.9194    0.0000 F   0  0  0  0  0  0  0  0  0  0  0  0
   -0.6634   -8.9793    0.0000 C   0  0  0  0  0  0  0  0  0  0  0  0
    1.0009   -7.7439    0.0000 O   0  0  0  0  0  0  0  0  0  0  0  0
    0.9838   -6.3713    0.0000 C   0  0  0  0  0  0  0  0  0  0  0  0
   -0.8922   -9.7799    0.0000 C   0  0  0  0  0  0  0  0  0  0  0  0
    0.1259   -8.7848    0.0000 C   0  0  0  0  0  0  0  0  0  0  0  0
    0.2745   -5.1302    0.0000 C   0  0  0  0  0  0  0  0  0  0  0  0
    2.4250  -11.1411    0.0000 C   0  0  0  0  0  0  0  0  0  0  0  0
    0.8293  -11.5529    0.0000 C   0  0  0  0  0  0  0  0  0  0  0  0
    0.9838   -5.5419    0.0000 C   0  0  0  0  0  0  0  0  0  0  0  0
    1.3955  -12.1363    0.0000 C   0  0  0  0  0  0  0  0  0  0  0  0
    2.2020  -11.9418    0.0000 C   0  0  0  0  0  0  0  0  0  0  0  0
  2  1  1  0
  3  2  2  0
  4  1  1  0
  5 12  1  0
  6  4  2  0
  7  8  1  0
  8  5  2  0
  9 11  1  0
 10  4  1  0
 11  5  1  0
 12 15  1  0
 13  6  1  0
 14 20  1  0
 15 18  1  0
 16  1  1  0
 17  2  1  0
 18 21  2  0
 19 13  2  0
 20 17  1  0
 21 30  1  0
 22 29  2  0
 23 14  1  0
 24 14  1  0
 25 14  1  0
 26 16  1  0
 27 13  1  0
 28  6  1  0
 29 26  1  0
 30 26  2  0
 31 10  2  0
 32 12  2  0
 33 15  2  0
 34 31  1  0
 35 33  1  0
 36 35  2  0
 10  3  1  0
 22 18  1  0
 28 34  2  0
 36 32  1  0
  9  7  2  0
M  END
>  <From>  (1) 
www.bindingDB.org

>  <BindingDB Reactant_set_id>  (1) 
50764780

>  <Ligand InChI>  (1) 
InChI=1S/C24H17F3N6O3/c25-24(26,27)13-36-23-28-19-7-3-6-18(22(34)35)20(19)33(23)12-14-8-10-15(11-9-14)16-4-1-2-5-17(16)21-29-31-32-30-21/h1-11H,12-13H2,(H,34,35)(H,29,30,31,32)

>  <Ligand InChI Key>  (1) 
CAOCTFFZCLXQQI-UHFFFAOYSA-N

>  <BindingDB MonomerID>  (1) 
50044381

>  <BindingDB Ligand Name>  (1) 
3-[2'-(1H-Tetrazol-5-yl)-biphenyl-4-ylmethyl]-2-(2,2,2-trifluoro-ethoxy)-3H-benzoimidazole-4-carboxylic acid::CHEMBL302973

>  <Target Name>  (1) 
Type-1 angiotensin II receptor

>  <Target Source Organism According to Curator or DataSource>  (1) 
Bos taurus

>  <Ki (nM)>  (1) 


>  <IC50 (nM)>  (1) 
 580

>  <Kd (nM)>  (1) 


>  <EC50 (nM)>  (1) 


>  <kon (M-1-s-1)>  (1) 


>  <koff (s-1)>  (1) 


>  <pH>  (1) 


>  <Temp C>  (1) 


>  <Curation/DataSource>  (1) 
ChEMBL

>  <Article DOI>  (1) 
10.1021/jm00067a016

>  <BindingDB Entry DOI>  (1) 
10.7270/Q20Z73X8

>  <PMID>  (1) 
8340921

>  <PubChem AID>  (1) 


>  <Patent Number>  (1) 


>  <Authors>  (1) 
Kubo, K; Kohara, Y; Imamiya, E; Sugiura, Y; Inada, Y; Furukawa, Y; Nishikawa, K; Naka, T

>  <Institution>  (1) 
Takeda Chemical Industries, Ltd

>  <Link to Ligand in BindingDB>  (1) 
http://www.bindingdb.org/bind/chemsearch/marvin/MolStructure.jsp?monomerid=50044381

>  <Link to Ligand-Target Pair in BindingDB>  (1) 
http://www.bindingdb.org/jsp/dbsearch/PrimarySearch_ki.jsp?energyterm=kJ/mole&tag=r21&monomerid=50044381&enzyme=Type-1+angiotensin+II+receptor&column=ki&startPg=0&Increment=50&submit=Search

>  <Ligand HET ID in PDB>  (1) 


>  <PDB ID(s) for Ligand-Target Complex>  (1) 


>  <PubChem CID of Ligand>  (1) 
15654757

>  <PubChem SID of Ligand>  (1) 
103975635

>  <ChEBI ID of Ligand>  (1) 


>  <ChEMBL ID of Ligand>  (1) 
CHEMBL302973

>  <DrugBank ID of Ligand>  (1) 


>  <IUPHAR_GRAC ID of Ligand>  (1) 


>  <KEGG ID of Ligand>  (1) 


>  <ZINC ID of Ligand>  (1) 
ZINC13832282

>  <Number of Protein Chains in Target (bigger than 1 implies a multichain complex)>  (1) 
1

>  <BindingDB Target Chain Sequence>  (1) 
MILNSSTEDGIKRIQDDCPKAGRHNYIFIMIPTLYSIIFVVGIFGNSLVVIVIYFYMKLKTVASVFLLNLALADLCFLLTLPLWAVYTAMEYRWPFGNYLCKIASASVSFNLYASVFLLTCLSIDRYLAIVHPMKSRLRRTMLVAKVTCIIIWLLAGLASLPTIIHRNVFFIENTNITVCAFHYESQNSTLPVGLGLTKNILGFLFPFLIILTSYTLIWKTLKKAYEIQKNKPRKDDIFKIILAIVLFFFFSWVPHQIFTFMDVLIQLGLIRDCKIEDIVDTAMPITICLAYFNNCLNPLFYGFLGKKFKKYFLQLLKYIPPKAKSHSNLSTKMSTLSYRPSENGNSSTKKPAPCIEVE

>  <PDB ID(s) of Target Chain>  (1) 


>  <UniProt (SwissProt) Recommended Name of Target Chain>  (1) 
Type-1 angiotensin II receptor

>  <UniProt (SwissProt) Entry Name of Target Chain>  (1) 
AGTR1_BOVIN

>  <UniProt (SwissProt) Primary ID of Target Chain>  (1) 
P25104

>  <UniProt (SwissProt) Secondary ID(s) of Target Chain>  (1) 


>  <UniProt (SwissProt) Alternative ID(s) of Target Chain>  (1) 


>  <UniProt (TrEMBL) Submitted Name of Target Chain>  (1) 


>  <UniProt (TrEMBL) Entry Name of Target Chain>  (1) 


>  <UniProt (TrEMBL) Primary ID of Target Chain>  (1) 


>  <UniProt (TrEMBL) Secondary ID(s) of Target Chain>  (1) 


>  <UniProt (TrEMBL) Alternative ID(s) of Target Chain>  (1) 


$$$$
