
     RDKit          2D

 51 55  0  0  0  0  0  0  0  0999 V2000
    4.7210   -5.6075    0.0000 N   0  0  0  0  0  0  0  0  0  0  0  0
    4.7795   -6.9498    0.0000 N   0  0  0  0  0  0  0  0  0  0  0  0
    8.3590   -6.3351    0.0000 S   0  0  0  0  0  0  0  0  0  0  0  0
    5.2354   -6.2640    0.0000 C   0  0  0  0  0  0  0  0  0  0  0  0
    3.9516   -5.9002    0.0000 N   0  0  0  0  0  0  0  0  0  0  0  0
    3.9809   -6.7240    0.0000 C   0  0  0  0  0  0  0  0  0  0  0  0
    7.9534   -5.6075    0.0000 N   0  0  0  0  0  0  0  0  0  0  0  0
    4.4325   -4.1691    0.0000 C   0  0  0  0  0  0  0  0  0  0  0  0
    4.9468   -4.8088    0.0000 C   0  0  0  0  0  0  0  0  0  0  0  0
    8.3715   -4.8967    0.0000 C   0  0  0  0  0  0  0  0  0  0  0  0
    3.6171   -4.2945    0.0000 C   0  0  0  0  0  0  0  0  0  0  0  0
    8.7688   -7.0627    0.0000 C   0  0  0  0  0  0  0  0  0  0  0  0
    9.1744   -4.6792    0.0000 C   0  0  0  0  0  0  0  0  0  0  0  0
    8.3548   -7.7694    0.0000 C   0  0  0  0  0  0  0  0  0  0  0  0
    5.0597   -7.7275    0.0000 C   0  0  0  0  0  0  0  0  0  0  0  0
    7.6314   -6.7365    0.0000 O   0  0  0  0  0  0  0  0  0  0  0  0
    9.0824   -5.9253    0.0000 O   0  0  0  0  0  0  0  0  0  0  0  0
    5.7622   -4.6917    0.0000 C   0  0  0  0  0  0  0  0  0  0  0  0
    4.7336   -3.4038    0.0000 C   0  0  0  0  0  0  0  0  0  0  0  0
    6.0633   -6.2264    0.0000 O   0  0  0  0  0  0  0  0  0  0  0  0
    6.6738   -2.3752    0.0000 C   0  0  0  0  0  0  0  0  0  0  0  0
    5.8501   -2.5006    0.0000 N   0  0  0  0  0  0  0  0  0  0  0  0
    7.5310   -7.7569    0.0000 C   0  0  0  0  0  0  0  0  0  0  0  0
    9.3751   -3.8805    0.0000 C   0  0  0  0  0  0  0  0  0  0  0  0
    7.9701   -4.1691    0.0000 O   0  0  0  0  0  0  0  0  0  0  0  0
    5.5490   -3.2784    0.0000 C   0  0  0  0  0  0  0  0  0  0  0  0
    7.1923   -3.0275    0.0000 O   0  0  0  0  0  0  0  0  0  0  0  0
    3.0985   -3.6505    0.0000 F   0  0  0  0  0  0  0  0  0  0  0  0
    3.3160   -5.0681    0.0000 F   0  0  0  0  0  0  0  0  0  0  0  0
    2.7975   -4.4157    0.0000 F   0  0  0  0  0  0  0  0  0  0  0  0
    7.1171   -7.0376    0.0000 C   0  0  0  0  0  0  0  0  0  0  0  0
    7.1045   -8.4594    0.0000 C   0  0  0  0  0  0  0  0  0  0  0  0
    5.8877   -7.7318    0.0000 C   0  0  0  0  0  0  0  0  0  0  0  0
    6.0633   -3.9182    0.0000 C   0  0  0  0  0  0  0  0  0  0  0  0
    8.7855   -3.2909    0.0000 Cl  0  0  0  0  0  0  0  0  0  0  0  0
    3.3286   -7.2383    0.0000 C   0  0  0  0  0  0  0  0  0  0  0  0
    6.2891   -8.4551    0.0000 C   0  0  0  0  0  0  0  0  0  0  0  0
    6.3017   -7.0293    0.0000 C   0  0  0  0  0  0  0  0  0  0  0  0
    9.7598   -5.2605    0.0000 C   0  0  0  0  0  0  0  0  0  0  0  0
    9.5884   -7.0669    0.0000 C   0  0  0  0  0  0  0  0  0  0  0  0
    8.7562   -8.4844    0.0000 C   0  0  0  0  0  0  0  0  0  0  0  0
    6.9749   -1.6099    0.0000 C   0  0  0  0  0  0  0  0  0  0  0  0
   10.1738   -3.6547    0.0000 C   0  0  0  0  0  0  0  0  0  0  0  0
    2.5633   -6.9289    0.0000 C   0  0  0  0  0  0  0  0  0  0  0  0
    1.9110   -7.4432    0.0000 C   0  0  0  0  0  0  0  0  0  0  0  0
   10.5543   -5.0430    0.0000 C   0  0  0  0  0  0  0  0  0  0  0  0
    7.7945   -1.4845    0.0000 C   0  0  0  0  0  0  0  0  0  0  0  0
   10.0024   -7.7903    0.0000 C   0  0  0  0  0  0  0  0  0  0  0  0
    9.5758   -8.4970    0.0000 C   0  0  0  0  0  0  0  0  0  0  0  0
    1.1458   -7.1296    0.0000 C   0  0  0  0  0  0  0  0  0  0  0  0
   10.7634   -4.2401    0.0000 C   0  0  0  0  0  0  0  0  0  0  0  0
  2  4  1  0
  3 12  1  0
  4  1  1  0
  5  1  1  0
  6  5  2  0
  7  3  1  0
  8  9  2  0
  9  1  1  0
 10  7  1  0
 11  8  1  0
 12 14  1  0
 13 10  1  0
 14 23  1  0
 15  2  1  0
 16  3  2  0
 17  3  2  0
 18  9  1  0
 19  8  1  0
 20  4  2  0
 21 22  1  0
 22 26  1  0
 23 31  2  0
 24 13  2  0
 25 10  2  0
 26 34  1  0
 27 21  2  0
 28 11  1  0
 29 11  1  0
 30 11  1  0
 31 38  1  0
 32 37  2  0
 33 15  1  0
 34 18  2  0
 35 24  1  0
 36  6  1  0
 37 33  1  0
 38 33  2  0
 39 13  1  0
 40 12  2  0
 41 14  2  0
 42 21  1  0
 43 24  1  0
 44 36  1  0
 45 44  1  0
 46 39  2  0
 47 42  1  0
 48 49  2  0
 49 41  1  0
 50 45  1  0
 51 46  1  0
  6  2  1  0
 19 26  2  0
 32 23  1  0
 40 48  1  0
 43 51  2  0
M  END
>  <From>  (1) 
www.bindingDB.org

>  <BindingDB Reactant_set_id>  (1) 
50037816

>  <Ligand InChI>  (1) 
InChI=1S/C36H33ClF3N5O5S/c1-3-5-14-32-42-45(30-20-19-25(41-33(46)4-2)21-28(30)36(38,39)40)35(48)44(32)22-23-15-17-24(18-16-23)26-10-7-9-13-31(26)51(49,50)43-34(47)27-11-6-8-12-29(27)37/h6-13,15-21H,3-5,14,22H2,1-2H3,(H,41,46)(H,43,47)

>  <Ligand InChI Key>  (1) 
QMCZEDFYGHLIQP-UHFFFAOYSA-N

>  <BindingDB MonomerID>  (1) 
50035450

>  <BindingDB Ligand Name>  (1) 
CHEMBL342605::N-(4-{3-Butyl-4-[2'-(2-chloro-benzoylsulfamoyl)-biphenyl-4-ylmethyl]-5-oxo-4,5-dihydro-[1,2,4]triazol-1-yl}-3-trifluoromethyl-phenyl)-propionamide

>  <Target Name>  (1) 
Type-1 angiotensin II receptor

>  <Target Source Organism According to Curator or DataSource>  (1) 
Oryctolagus cuniculus

>  <Ki (nM)>  (1) 


>  <IC50 (nM)>  (1) 
 0.420000

>  <Kd (nM)>  (1) 


>  <EC50 (nM)>  (1) 


>  <kon (M-1-s-1)>  (1) 


>  <koff (s-1)>  (1) 


>  <pH>  (1) 


>  <Temp C>  (1) 


>  <Curation/DataSource>  (1) 
ChEMBL

>  <Article DOI>  (1) 
10.1021/jm00052a006

>  <BindingDB Entry DOI>  (1) 
10.7270/Q2WD3ZK5

>  <PMID>  (1) 
7799397

>  <PubChem AID>  (1) 


>  <Patent Number>  (1) 


>  <Authors>  (1) 
Chang, LL; Ashton, WT; Flanagan, KL; Chen, TB; O'Malley, SS; Zingaro, GJ; Siegl, PK; Kivlighn, SD; Lotti, VJ; Chang, RS

>  <Institution>  (1) 
Merck Research Laboratories

>  <Link to Ligand in BindingDB>  (1) 
http://www.bindingdb.org/bind/chemsearch/marvin/MolStructure.jsp?monomerid=50035450

>  <Link to Ligand-Target Pair in BindingDB>  (1) 
http://www.bindingdb.org/jsp/dbsearch/PrimarySearch_ki.jsp?energyterm=kJ/mole&tag=r21&monomerid=50035450&enzyme=Type-1+angiotensin+II+receptor&column=ki&startPg=0&Increment=50&submit=Search

>  <Ligand HET ID in PDB>  (1) 


>  <PDB ID(s) for Ligand-Target Complex>  (1) 


>  <PubChem CID of Ligand>  (1) 
11765541

>  <PubChem SID of Ligand>  (1) 
103943469

>  <ChEBI ID of Ligand>  (1) 


>  <ChEMBL ID of Ligand>  (1) 
CHEMBL342605

>  <DrugBank ID of Ligand>  (1) 


>  <IUPHAR_GRAC ID of Ligand>  (1) 


>  <KEGG ID of Ligand>  (1) 


>  <ZINC ID of Ligand>  (1) 
ZINC95611446

>  <Number of Protein Chains in Target (bigger than 1 implies a multichain complex)>  (1) 
1

>  <BindingDB Target Chain Sequence>  (1) 
MMLNSSTEDGIKRIQDDCPKAGRHNYIFVMIPTLYSIIFVVGIFGNSLAVIVIYFYMKLKTVASVFLLNLALADLCFLLTLPLWAVYTAMEYRWPFGNYLCKIASASVSFNLYASVFLLTCLSIDRYLAIVHPMKSRLRRTMLVAKVTCIIIWLLAGLASLPAIIHRNVFFIENTNITVCAFHYESQNSTLPIGLGLTKNILGFLFPFLIILTSYTLIWKALKKAYEIQKNKPRNDDIFKIIMAIVLFFFFSWVPHQIFTFLDVLIQLGVIHDCRIADIVDTAMPITICIAYFNNCLNPLFYGFLGKKFKKYFLQLLKYIPPKAKSHSNLSTKMSTLSYRPSDNVSSSSKKPVPCFEVE

>  <PDB ID(s) of Target Chain>  (1) 
6DO1,6OS0,6OS1,6OS2

>  <UniProt (SwissProt) Recommended Name of Target Chain>  (1) 
Type-1 angiotensin II receptor

>  <UniProt (SwissProt) Entry Name of Target Chain>  (1) 
AGTR1_RABIT

>  <UniProt (SwissProt) Primary ID of Target Chain>  (1) 
P34976

>  <UniProt (SwissProt) Secondary ID(s) of Target Chain>  (1) 


>  <UniProt (SwissProt) Alternative ID(s) of Target Chain>  (1) 


>  <UniProt (TrEMBL) Submitted Name of Target Chain>  (1) 


>  <UniProt (TrEMBL) Entry Name of Target Chain>  (1) 


>  <UniProt (TrEMBL) Primary ID of Target Chain>  (1) 


>  <UniProt (TrEMBL) Secondary ID(s) of Target Chain>  (1) 


>  <UniProt (TrEMBL) Alternative ID(s) of Target Chain>  (1) 


$$$$
