
     RDKit          2D

 48 51  0  0  0  0  0  0  0  0999 V2000
   39.6957   -5.9391    0.0000 Na  0  0  0  0  0 15  0  0  0  0  0  0
   31.3783   -6.4555    0.0000 C   0  0  0  0  0  0  0  0  0  0  0  0
   31.2099   -7.2576    0.0000 C   0  0  0  0  0  0  0  0  0  0  0  0
   31.8196   -7.8025    0.0000 C   0  0  0  0  0  0  0  0  0  0  0  0
   32.5979   -7.5465    0.0000 C   0  0  0  0  0  0  0  0  0  0  0  0
   32.7630   -6.7406    0.0000 C   0  0  0  0  0  0  0  0  0  0  0  0
   32.1520   -6.1992    0.0000 C   0  0  0  0  0  0  0  0  0  0  0  0
   32.3131   -5.4009    0.0000 C   0  0  0  0  0  0  0  0  0  0  0  0
   33.0900   -5.1440    0.0000 C   0  0  0  0  0  0  0  0  0  0  0  0
   33.2546   -4.3443    0.0000 C   0  0  0  0  0  0  0  0  0  0  0  0
   32.6432   -3.8008    0.0000 C   0  0  0  0  0  0  0  0  0  0  0  0
   31.8646   -4.0625    0.0000 C   0  0  0  0  0  0  0  0  0  0  0  0
   31.7037   -4.8615    0.0000 C   0  0  0  0  0  0  0  0  0  0  0  0
   30.7690   -5.9075    0.0000 C   0  0  0  0  0  0  0  0  0  0  0  0
   30.8510   -5.0944    0.0000 N   0  0  0  0  0  0  0  0  0  0  0  0
   30.1031   -4.7651    0.0000 N   0  0  0  0  0  0  0  0  0  0  0  0
   29.5588   -5.3747    0.0000 N   0  0  0  0  0  0  0  0  0  0  0  0
   29.9704   -6.0806    0.0000 N   0  0  0  0  0  0  0  0  0  0  0  0
   32.8065   -3.0001    0.0000 C   0  0  0  0  0  0  0  0  0  0  0  0
   33.5816   -2.7412    0.0000 N   0  0  0  0  0  0  0  0  0  0  0  0
   34.2419   -3.2182    0.0000 C   0  0  0  0  0  0  0  0  0  0  0  0
   34.8990   -2.7324    0.0000 N   0  0  0  0  0  0  0  0  0  0  0  0
   34.6401   -1.9573    0.0000 C   0  0  0  0  0  0  0  0  0  0  0  0
   33.8230   -1.9641    0.0000 C   0  0  0  0  0  0  0  0  0  0  0  0
   35.6783   -2.9786    0.0000 C   0  0  0  0  0  0  0  0  0  0  0  0
   35.8547   -3.7765    0.0000 C   0  0  0  0  0  0  0  0  0  0  0  0
   35.2499   -4.3267    0.0000 C   0  0  0  0  0  0  0  0  0  0  0  0
   35.4259   -5.1239    0.0000 C   0  0  0  0  0  0  0  0  0  0  0  0
   36.2058   -5.3707    0.0000 C   0  0  0  0  0  0  0  0  0  0  0  0
   36.8100   -4.8142    0.0000 C   0  0  0  0  0  0  0  0  0  0  0  0
   36.6309   -4.0190    0.0000 C   0  0  0  0  0  0  0  0  0  0  0  0
   36.3818   -6.1644    0.0000 C   0  0  0  0  0  0  0  0  0  0  0  0
   35.7780   -6.7168    0.0000 C   0  0  0  0  0  0  0  0  0  0  0  0
   35.9550   -7.5138    0.0000 C   0  0  0  0  0  0  0  0  0  0  0  0
   36.7353   -7.7596    0.0000 C   0  0  0  0  0  0  0  0  0  0  0  0
   37.3387   -7.2022    0.0000 C   0  0  0  0  0  0  0  0  0  0  0  0
   37.1586   -6.4073    0.0000 C   0  0  0  0  0  0  0  0  0  0  0  0
   37.7571   -5.8549    0.0000 C   0  0  0  0  0  0  0  0  0  0  0  0
   38.5585   -6.0149    0.0000 N   0  0  0  0  0  0  0  0  0  0  0  0
   38.9583   -5.3022    0.0000 N   0  0  0  0  0  0  0  0  0  0  0  0
   38.4041   -4.7017    0.0000 N   0  0  0  0  0  0  0  0  0  0  0  0
   37.6618   -5.0433    0.0000 N   0  0  0  0  0  0  0  0  0  0  0  0
   35.1150   -1.2922    0.0000 C   0  0  0  0  0  0  0  0  0  0  0  0
   35.9284   -1.3709    0.0000 C   0  0  0  0  0  0  0  0  0  0  0  0
   36.4032   -0.7139    0.0000 C   0  0  0  0  0  0  0  0  0  0  0  0
   37.2166   -0.7921    0.0000 C   0  0  0  0  0  0  0  0  0  0  0  0
   33.9382   -7.7963    0.0000 Br  0  0  0  0  0  0  0  0  0  0  0  0
   28.6801   -5.8153    0.0000 Na  0  0  0  0  0 15  0  0  0  0  0  0
  2  3  2  0
  3  4  1  0
  4  5  2  0
  5  6  1  0
  6  7  2  0
  7  2  1  0
  8  9  2  0
  9 10  1  0
 10 11  2  0
 11 12  1  0
 12 13  2  0
 13  8  1  0
  7  8  1  0
 14 15  1  0
 15 16  2  0
 16 17  1  0
 17 18  1  0
 18 14  2  0
  2 14  1  0
 11 19  1  0
 19 20  1  0
 20 21  2  0
 21 22  1  0
 22 23  1  0
 23 24  2  0
 24 20  1  0
 22 25  1  0
 25 26  1  0
 26 27  2  0
 27 28  1  0
 28 29  2  0
 29 30  1  0
 30 31  2  0
 31 26  1  0
 32 33  2  0
 33 34  1  0
 34 35  2  0
 35 36  1  0
 36 37  2  0
 37 32  1  0
 29 32  1  0
 38 39  2  0
 39 40  1  0
 40 41  1  0
 41 42  2  0
 42 38  1  0
 37 38  1  0
 23 43  1  0
 43 44  1  0
 44 45  1  0
 45 46  1  0
M  CHG  6   1   1  17  -1  20   1  40  -1  47  -1  48   1
M  END
>  <From>  (1) 
www.bindingDB.org

>  <BindingDB Reactant_set_id>  (1) 
51192215

>  <Ligand InChI>  (1) 
InChI=1S/C35H31N10/c1-2-3-8-29-23-44(21-25-13-17-27(18-14-25)30-9-4-6-11-32(30)34-36-40-41-37-34)24-45(29)22-26-15-19-28(20-16-26)31-10-5-7-12-33(31)35-38-42-43-39-35/h4-7,9-20,23-24H,2-3,8,21-22H2,1H3/q-1

>  <Ligand InChI Key>  (1) 
UHXCMMLCKPSTSS-UHFFFAOYSA-N

>  <BindingDB MonomerID>  (1) 
50490709

>  <BindingDB Ligand Name>  (1) 
CHEMBL2337688

>  <Target Name>  (1) 
Type-1 angiotensin II receptor

>  <Target Source Organism According to Curator or DataSource>  (1) 
Homo sapiens

>  <Ki (nM)>  (1) 


>  <IC50 (nM)>  (1) 
 2.9

>  <Kd (nM)>  (1) 


>  <EC50 (nM)>  (1) 


>  <kon (M-1-s-1)>  (1) 


>  <koff (s-1)>  (1) 


>  <pH>  (1) 


>  <Temp C>  (1) 


>  <Curation/DataSource>  (1) 
ChEMBL

>  <Article DOI>  (1) 
10.1016/j.ejmech.2012.12.044

>  <BindingDB Entry DOI>  (1) 
10.7270/Q2DF6V47

>  <PMID>  (1) 
23376252

>  <PubChem AID>  (1) 


>  <Patent Number>  (1) 


>  <Authors>  (1) 
Agelis, G; Resvani, A; Koukoulitsa, C; Tůmová, T; Slaninová, J; Kalavrizioti, D; Spyridaki, K; Afantitis, A; Melagraki, G; Siafaka, A; Gkini, E; Megariotis, G; Grdadolnik, SG; Papadopoulos, MG; Vlahakos, D; Maragoudakis, M; Liapakis, G; Mavromoustakos, T; Matsoukas, J

>  <Institution>  (1) 
University of Patras

>  <Link to Ligand in BindingDB>  (1) 
http://www.bindingdb.org/bind/chemsearch/marvin/MolStructure.jsp?monomerid=50490709

>  <Link to Ligand-Target Pair in BindingDB>  (1) 
http://www.bindingdb.org/jsp/dbsearch/PrimarySearch_ki.jsp?energyterm=kJ/mole&tag=r21&monomerid=50490709&enzyme=Type-1+angiotensin+II+receptor&column=ki&startPg=0&Increment=50&submit=Search

>  <Ligand HET ID in PDB>  (1) 


>  <PDB ID(s) for Ligand-Target Complex>  (1) 


>  <PubChem CID of Ligand>  (1) 
71653456

>  <PubChem SID of Ligand>  (1) 
433957974

>  <ChEBI ID of Ligand>  (1) 


>  <ChEMBL ID of Ligand>  (1) 


>  <DrugBank ID of Ligand>  (1) 


>  <IUPHAR_GRAC ID of Ligand>  (1) 


>  <KEGG ID of Ligand>  (1) 


>  <ZINC ID of Ligand>  (1) 


>  <Number of Protein Chains in Target (bigger than 1 implies a multichain complex)>  (1) 
1

>  <BindingDB Target Chain Sequence>  (1) 
MILNSSTEDGIKRIQDDCPKAGRHNYIFVMIPTLYSIIFVVGIFGNSLVVIVIYFYMKLKTVASVFLLNLALADLCFLLTLPLWAVYTAMEYRWPFGNYLCKIASASVSFNLYASVFLLTCLSIDRYLAIVHPMKSRLRRTMLVAKVTCIIIWLLAGLASLPAIIHRNVFFIENTNITVCAFHYESQNSTLPIGLGLTKNILGFLFPFLIILTSYTLIWKALKKAYEIQKNKPRNDDIFKIIMAIVLFFFFSWIPHQIFTFLDVLIQLGIIRDCRIADIVDTAMPITICIAYFNNCLNPLFYGFLGKKFKRYFLQLLKYIPPKAKSHSNLSTKMSTLSYRPSDNVSSSTKKPAPCFEVE

>  <PDB ID(s) of Target Chain>  (1) 
6DO1,6OS0,6OS1,6OS2

>  <UniProt (SwissProt) Recommended Name of Target Chain>  (1) 
Type-1 angiotensin II receptor

>  <UniProt (SwissProt) Entry Name of Target Chain>  (1) 
AGTR1_HUMAN

>  <UniProt (SwissProt) Primary ID of Target Chain>  (1) 
P30556

>  <UniProt (SwissProt) Secondary ID(s) of Target Chain>  (1) 
Q13725 Q8TBK4

>  <UniProt (SwissProt) Alternative ID(s) of Target Chain>  (1) 


>  <UniProt (TrEMBL) Submitted Name of Target Chain>  (1) 


>  <UniProt (TrEMBL) Entry Name of Target Chain>  (1) 


>  <UniProt (TrEMBL) Primary ID of Target Chain>  (1) 


>  <UniProt (TrEMBL) Secondary ID(s) of Target Chain>  (1) 


>  <UniProt (TrEMBL) Alternative ID(s) of Target Chain>  (1) 


$$$$
