
     RDKit          2D

 53 57  0  0  0  0  0  0  0  0999 V2000
    6.4288   -7.7239    0.0000 S   0  0  0  0  0  0  0  0  0  0  0  0
    2.8672   -6.4756    0.0000 N   0  0  0  0  0  0  0  0  0  0  0  0
    3.5343   -5.9958    0.0000 C   0  0  0  0  0  0  0  0  0  0  0  0
    2.4615   -5.2117    0.0000 N   0  0  0  0  0  0  0  0  0  0  0  0
    3.2807   -5.2117    0.0000 C   0  0  0  0  0  0  0  0  0  0  0  0
    2.2041   -5.9919    0.0000 C   0  0  0  0  0  0  0  0  0  0  0  0
    7.1427   -7.3065    0.0000 N   0  0  0  0  0  0  0  0  0  0  0  0
    6.4288   -8.5470    0.0000 C   0  0  0  0  0  0  0  0  0  0  0  0
    2.8672   -7.3026    0.0000 C   0  0  0  0  0  0  0  0  0  0  0  0
    4.3223   -6.2533    0.0000 C   0  0  0  0  0  0  0  0  0  0  0  0
    5.3755   -4.3535    0.0000 C   0  0  0  0  0  0  0  0  0  0  0  0
    7.8643   -7.7239    0.0000 C   0  0  0  0  0  0  0  0  0  0  0  0
    3.5811   -7.7161    0.0000 C   0  0  0  0  0  0  0  0  0  0  0  0
    5.7149   -8.9566    0.0000 C   0  0  0  0  0  0  0  0  0  0  0  0
    5.0011   -8.5470    0.0000 C   0  0  0  0  0  0  0  0  0  0  0  0
    6.1674   -4.6032    0.0000 C   0  0  0  0  0  0  0  0  0  0  0  0
    3.5733   -8.5470    0.0000 C   0  0  0  0  0  0  0  0  0  0  0  0
    5.7110   -8.1335    0.0000 O   0  0  0  0  0  0  0  0  0  0  0  0
    5.8437   -7.1387    0.0000 O   0  0  0  0  0  0  0  0  0  0  0  0
    4.2872   -8.9566    0.0000 C   0  0  0  0  0  0  0  0  0  0  0  0
    4.9386   -5.7032    0.0000 O   0  0  0  0  0  0  0  0  0  0  0  0
    6.3352   -5.4107    0.0000 C   0  0  0  0  0  0  0  0  0  0  0  0
    4.7670   -4.9074    0.0000 O   0  0  0  0  0  0  0  0  0  0  0  0
    4.2872   -7.3065    0.0000 C   0  0  0  0  0  0  0  0  0  0  0  0
    7.8643   -8.5470    0.0000 O   0  0  0  0  0  0  0  0  0  0  0  0
    4.4627   -6.8345    0.0000 O   0  0  0  0  0  0  0  0  0  0  0  0
    5.0011   -7.7161    0.0000 C   0  0  0  0  0  0  0  0  0  0  0  0
    5.2078   -3.5382    0.0000 C   0  0  0  0  0  0  0  0  0  0  0  0
    5.7227   -5.9607    0.0000 C   0  0  0  0  0  0  0  0  0  0  0  0
    2.8555   -8.9527    0.0000 F   0  0  0  0  0  0  0  0  0  0  0  0
    8.5821   -7.3065    0.0000 O   0  0  0  0  0  0  0  0  0  0  0  0
    3.7723   -4.5446    0.0000 C   0  0  0  0  0  0  0  0  0  0  0  0
    1.4160   -6.2416    0.0000 C   0  0  0  0  0  0  0  0  0  0  0  0
    7.1427   -8.9566    0.0000 C   0  0  0  0  0  0  0  0  0  0  0  0
    5.7149   -9.7875    0.0000 C   0  0  0  0  0  0  0  0  0  0  0  0
    6.7799   -4.0531    0.0000 C   0  0  0  0  0  0  0  0  0  0  0  0
    7.1193   -5.6681    0.0000 C   0  0  0  0  0  0  0  0  0  0  0  0
    5.8203   -2.9959    0.0000 C   0  0  0  0  0  0  0  0  0  0  0  0
    4.4237   -3.2924    0.0000 C   0  0  0  0  0  0  0  0  0  0  0  0
    9.2960   -7.7161    0.0000 C   0  0  0  0  0  0  0  0  0  0  0  0
    0.7997   -5.6876    0.0000 C   0  0  0  0  0  0  0  0  0  0  0  0
    3.4329   -3.7840    0.0000 C   0  0  0  0  0  0  0  0  0  0  0  0
   10.0099   -7.3065    0.0000 C   0  0  0  0  0  0  0  0  0  0  0  0
   10.7237   -7.7161    0.0000 C   0  0  0  0  0  0  0  0  0  0  0  0
    7.1504   -9.7875    0.0000 C   0  0  0  0  0  0  0  0  0  0  0  0
    7.5717   -4.3106    0.0000 C   0  0  0  0  0  0  0  0  0  0  0  0
    6.4288  -10.2049    0.0000 C   0  0  0  0  0  0  0  0  0  0  0  0
    0.0156   -5.9373    0.0000 C   0  0  0  0  0  0  0  0  0  0  0  0
   11.4454   -7.3065    0.0000 C   0  0  0  0  0  0  0  0  0  0  0  0
    4.2481   -2.4927    0.0000 C   0  0  0  0  0  0  0  0  0  0  0  0
    7.7395   -5.1181    0.0000 C   0  0  0  0  0  0  0  0  0  0  0  0
    5.6525   -2.1884    0.0000 C   0  0  0  0  0  0  0  0  0  0  0  0
    4.8606   -1.9310    0.0000 C   0  0  0  0  0  0  0  0  0  0  0  0
  2  9  1  0
  3  2  1  0
  4  6  2  0
  5  3  2  0
  6  2  1  0
  7  1  1  0
  8  1  1  0
  9 13  1  0
 10  3  1  0
 11 16  1  0
 12  7  1  0
 13 24  2  0
 14  8  2  0
 15 14  1  0
 16 22  1  0
 17 20  2  0
 18  1  2  0
 19  1  2  0
 20 15  1  0
 21 10  1  0
 22 29  1  0
 23 11  2  0
 24 27  1  0
 25 12  2  0
 26 10  2  0
 27 15  2  0
 28 11  1  0
 29 21  1  0
 30 17  1  0
 31 12  1  0
 32  5  1  0
 33  6  1  0
 34  8  1  0
 35 14  1  0
 36 16  2  0
 37 22  2  0
 38 28  2  0
 39 28  1  0
 40 31  1  0
 41 33  1  0
 42 32  1  0
 43 40  1  0
 44 43  1  0
 45 34  2  0
 46 51  2  0
 47 45  1  0
 48 41  1  0
 49 44  1  0
 50 39  2  0
 51 37  1  0
 52 38  1  0
 53 50  1  0
 47 35  2  0
 17 13  1  0
  4  5  1  0
 46 36  1  0
 53 52  2  0
M  END
>  <From>  (1) 
www.bindingDB.org

>  <BindingDB Reactant_set_id>  (1) 
50469083

>  <Ligand InChI>  (1) 
InChI=1S/C41H42FN3O7S/c1-4-7-24-51-41(48)44-53(49,50)36-21-14-13-19-32(36)29-22-23-30(34(42)25-29)26-45-37(15-5-2)43-35(6-3)38(45)40(47)52-27-31-18-11-12-20-33(31)39(46)28-16-9-8-10-17-28/h8-14,16-23,25H,4-7,15,24,26-27H2,1-3H3,(H,44,48)

>  <Ligand InChI Key>  (1) 
QLMPKYMPDFHNLL-UHFFFAOYSA-N

>  <BindingDB MonomerID>  (1) 
50283200

>  <BindingDB Ligand Name>  (1) 
Biphenylsulfonylcarbamate compound::CHEMBL71172

>  <Target Name>  (1) 
Type-1 angiotensin II receptor

>  <Target Source Organism According to Curator or DataSource>  (1) 
Homo sapiens

>  <Ki (nM)>  (1) 


>  <IC50 (nM)>  (1) 
 0.200000

>  <Kd (nM)>  (1) 


>  <EC50 (nM)>  (1) 


>  <kon (M-1-s-1)>  (1) 


>  <koff (s-1)>  (1) 


>  <pH>  (1) 


>  <Temp C>  (1) 


>  <Curation/DataSource>  (1) 
ChEMBL

>  <Article DOI>  (1) 
10.1016/S0960-894X(00)80077-3

>  <BindingDB Entry DOI>  (1) 
10.7270/Q2DZ088W

>  <PMID>  (1) 


>  <PubChem AID>  (1) 


>  <Patent Number>  (1) 


>  <Authors>  (1) 
Santella, JB; Duncia, JV; Ensinger, CL; VanAtten, MK; Carini, DJ; Wexler, RR; Chiu, AT; Wong, PC; Timmermans, PB

>  <Institution>  (1) 
TBA

>  <Link to Ligand in BindingDB>  (1) 
http://www.bindingdb.org/bind/chemsearch/marvin/MolStructure.jsp?monomerid=50283200

>  <Link to Ligand-Target Pair in BindingDB>  (1) 
http://www.bindingdb.org/jsp/dbsearch/PrimarySearch_ki.jsp?energyterm=kJ/mole&tag=r21&monomerid=50283200&enzyme=Type-1+angiotensin+II+receptor&column=ki&startPg=0&Increment=50&submit=Search

>  <Ligand HET ID in PDB>  (1) 


>  <PDB ID(s) for Ligand-Target Complex>  (1) 


>  <PubChem CID of Ligand>  (1) 
9918412

>  <PubChem SID of Ligand>  (1) 
104124874

>  <ChEBI ID of Ligand>  (1) 


>  <ChEMBL ID of Ligand>  (1) 
CHEMBL71172

>  <DrugBank ID of Ligand>  (1) 


>  <IUPHAR_GRAC ID of Ligand>  (1) 


>  <KEGG ID of Ligand>  (1) 


>  <ZINC ID of Ligand>  (1) 
ZINC03939361

>  <Number of Protein Chains in Target (bigger than 1 implies a multichain complex)>  (1) 
1

>  <BindingDB Target Chain Sequence>  (1) 
MILNSSTEDGIKRIQDDCPKAGRHNYIFVMIPTLYSIIFVVGIFGNSLVVIVIYFYMKLKTVASVFLLNLALADLCFLLTLPLWAVYTAMEYRWPFGNYLCKIASASVSFNLYASVFLLTCLSIDRYLAIVHPMKSRLRRTMLVAKVTCIIIWLLAGLASLPAIIHRNVFFIENTNITVCAFHYESQNSTLPIGLGLTKNILGFLFPFLIILTSYTLIWKALKKAYEIQKNKPRNDDIFKIIMAIVLFFFFSWIPHQIFTFLDVLIQLGIIRDCRIADIVDTAMPITICIAYFNNCLNPLFYGFLGKKFKRYFLQLLKYIPPKAKSHSNLSTKMSTLSYRPSDNVSSSTKKPAPCFEVE

>  <PDB ID(s) of Target Chain>  (1) 
6DO1,6OS0,6OS1,6OS2

>  <UniProt (SwissProt) Recommended Name of Target Chain>  (1) 
Type-1 angiotensin II receptor

>  <UniProt (SwissProt) Entry Name of Target Chain>  (1) 
AGTR1_HUMAN

>  <UniProt (SwissProt) Primary ID of Target Chain>  (1) 
P30556

>  <UniProt (SwissProt) Secondary ID(s) of Target Chain>  (1) 
Q13725 Q8TBK4

>  <UniProt (SwissProt) Alternative ID(s) of Target Chain>  (1) 


>  <UniProt (TrEMBL) Submitted Name of Target Chain>  (1) 


>  <UniProt (TrEMBL) Entry Name of Target Chain>  (1) 


>  <UniProt (TrEMBL) Primary ID of Target Chain>  (1) 


>  <UniProt (TrEMBL) Secondary ID(s) of Target Chain>  (1) 


>  <UniProt (TrEMBL) Alternative ID(s) of Target Chain>  (1) 


$$$$
