
     RDKit          2D

 39 42  0  0  1  0  0  0  0  0999 V2000
    6.0417   -3.2542    0.0000 N   0  0  0  0  0  0  0  0  0  0  0  0
    5.6167   -4.5167    0.0000 N   0  0  0  0  0  0  0  0  0  0  0  0
    6.7042   -3.7417    0.0000 C   0  0  0  0  0  0  0  0  0  0  0  0
    6.4417   -4.5292    0.0000 C   0  0  0  0  0  0  0  0  0  0  0  0
    1.3375   -0.4375    0.0000 N   0  0  0  0  0  0  0  0  0  0  0  0
    5.3750   -3.7292    0.0000 C   0  0  0  0  0  0  0  0  0  0  0  0
    1.3375   -2.4500    0.0000 C   0  0  0  0  0  0  0  0  0  0  0  0
    2.0500   -2.8625    0.0000 C   0  0  0  0  0  0  0  0  0  0  0  0
    7.4917   -3.4917    0.0000 C   0  0  0  0  0  0  0  0  0  0  0  0
    2.0042    0.0458    0.0000 C   0  0  0  0  0  0  0  0  0  0  0  0
    0.6667    0.0458    0.0000 C   0  0  0  0  0  0  0  0  0  0  0  0
    0.9250    0.8333    0.0000 C   0  0  0  0  0  0  0  0  0  0  0  0
    1.7500    0.8333    0.0000 C   0  0  0  0  0  0  0  0  0  0  0  0
    2.7625   -2.4500    0.0000 N   0  0  0  0  0  0  0  0  0  0  0  0
    8.1000   -4.0542    0.0000 C   0  0  0  0  0  0  0  0  0  0  0  0
    6.0500   -2.4292    0.0000 C   0  0  0  0  0  0  0  0  0  0  0  0
    0.6167   -2.8625    0.0000 C   0  0  0  0  0  0  0  0  0  0  0  0
    2.0500   -3.6875    0.0000 O   0  0  0  0  0  0  0  0  0  0  0  0
    6.9250   -5.2000    0.0000 Cl  0  0  0  0  0  0  0  0  0  0  0  0
    8.8917   -3.8042    0.0000 O   0  0  0  0  0  0  0  0  0  0  0  0
    3.5875   -2.4417    0.0000 C   0  0  0  0  0  0  0  0  0  0  0  0
    5.2250   -2.4375    0.0000 C   0  0  0  0  0  0  0  0  0  0  0  0
    4.5917   -3.4750    0.0000 C   0  0  0  0  0  0  0  0  0  0  0  0
    7.9250   -4.8625    0.0000 O   0  0  0  0  0  0  0  0  0  0  0  0
   -0.0958   -2.4500    0.0000 C   0  0  0  0  0  0  0  0  0  0  0  0
    3.9917   -3.1542    0.0000 C   0  0  0  0  0  0  0  0  0  0  0  0
    3.9875   -1.7292    0.0000 C   0  0  0  0  0  0  0  0  0  0  0  0
    4.8042   -1.7250    0.0000 C   0  0  0  0  0  0  0  0  0  0  0  0
    4.8167   -3.1500    0.0000 C   0  0  0  0  0  0  0  0  0  0  0  0
   -0.1208   -0.2042    0.0000 C   0  0  0  0  0  0  0  0  0  0  0  0
    2.7875   -0.2042    0.0000 C   0  0  0  0  0  0  0  0  0  0  0  0
   -0.8083   -2.8542    0.0000 C   0  0  0  0  0  0  0  0  0  0  0  0
   -0.0958   -1.6167    0.0000 C   0  0  0  0  0  0  0  0  0  0  0  0
    3.9750   -4.0167    0.0000 C   0  0  0  0  0  0  0  0  0  0  0  0
    3.1917   -3.7542    0.0000 C   0  0  0  0  0  0  0  0  0  0  0  0
    2.5667   -4.3042    0.0000 C   0  0  0  0  0  0  0  0  0  0  0  0
   -0.8083   -1.2042    0.0000 C   0  0  0  0  0  0  0  0  0  0  0  0
   -1.5208   -2.4500    0.0000 C   0  0  0  0  0  0  0  0  0  0  0  0
   -1.5208   -1.6167    0.0000 C   0  0  0  0  0  0  0  0  0  0  0  0
  2  6  2  0
  3  1  1  0
  4  3  2  0
  7  5  1  0
  6  1  1  0
  7  8  1  0
  8 14  1  0
  9  3  1  0
 10  5  1  0
 11  5  1  0
 12 11  2  0
 13 10  2  0
 14 21  1  0
 15  9  1  0
 16  1  1  0
  7 17  1  6
 18  8  2  0
 19  4  1  0
 20 15  2  0
 21 26  2  0
 22 16  1  0
 23  6  1  0
 24 15  1  0
 25 17  1  0
 26 29  1  0
 27 28  2  0
 28 22  1  0
 29 22  2  0
 30 11  1  0
 31 10  1  0
 32 25  2  0
 33 25  1  0
 34 23  1  0
 35 34  1  0
 36 35  1  0
 37 33  2  0
 38 32  1  0
 39 37  1  0
  2  4  1  0
 27 21  1  0
 13 12  1  0
 38 39  2  0
M  END
>  <From>  (1) 
www.bindingDB.org

>  <BindingDB Reactant_set_id>  (1) 
50077607

>  <Ligand InChI>  (1) 
InChI=1S/C31H35ClN4O3/c1-4-5-11-28-34-30(32)26(19-29(37)38)35(28)20-24-14-16-25(17-15-24)33-31(39)27(18-23-9-7-6-8-10-23)36-21(2)12-13-22(36)3/h6-10,12-17,27H,4-5,11,18-20H2,1-3H3,(H,33,39)(H,37,38)/t27-/m0/s1

>  <Ligand InChI Key>  (1) 
HDWBTKVMAIUHRH-MHZLTWQESA-N

>  <BindingDB MonomerID>  (1) 
50047958

>  <BindingDB Ligand Name>  (1) 
(2-Butyl-5-chloro-3-{4-[2-(2,5-dimethyl-pyrrol-1-yl)-3-phenyl-propionylamino]-benzyl}-3H-imidazol-4-yl)-acetic acid::CHEMBL48486

>  <Target Name>  (1) 
Type-1 angiotensin II receptor B

>  <Target Source Organism According to Curator or DataSource>  (1) 
Rattus

>  <Ki (nM)>  (1) 


>  <IC50 (nM)>  (1) 
 370

>  <Kd (nM)>  (1) 


>  <EC50 (nM)>  (1) 


>  <kon (M-1-s-1)>  (1) 


>  <koff (s-1)>  (1) 


>  <pH>  (1) 


>  <Temp C>  (1) 


>  <Curation/DataSource>  (1) 
ChEMBL

>  <Article DOI>  (1) 
10.1021/jm00064a007

>  <BindingDB Entry DOI>  (1) 
10.7270/Q28W3CCP

>  <PMID>  (1) 
8510101

>  <PubChem AID>  (1) 


>  <Patent Number>  (1) 


>  <Authors>  (1) 
Sircar, I; Winters, RT; Quin, J; Lu, GH; Major, TC; Panek, RL

>  <Institution>  (1) 
Warner-Lambert Company

>  <Link to Ligand in BindingDB>  (1) 
http://www.bindingdb.org/bind/chemsearch/marvin/MolStructure.jsp?monomerid=50047958

>  <Link to Ligand-Target Pair in BindingDB>  (1) 
http://www.bindingdb.org/jsp/dbsearch/PrimarySearch_ki.jsp?energyterm=kJ/mole&tag=r21&monomerid=50047958&enzyme=Type-1+angiotensin+II+receptor+B&column=ki&startPg=0&Increment=50&submit=Search

>  <Ligand HET ID in PDB>  (1) 


>  <PDB ID(s) for Ligand-Target Complex>  (1) 


>  <PubChem CID of Ligand>  (1) 
44294023

>  <PubChem SID of Ligand>  (1) 
103978522

>  <ChEBI ID of Ligand>  (1) 


>  <ChEMBL ID of Ligand>  (1) 
CHEMBL48486

>  <DrugBank ID of Ligand>  (1) 


>  <IUPHAR_GRAC ID of Ligand>  (1) 


>  <KEGG ID of Ligand>  (1) 


>  <ZINC ID of Ligand>  (1) 
ZINC29468593

>  <Number of Protein Chains in Target (bigger than 1 implies a multichain complex)>  (1) 
1

>  <BindingDB Target Chain Sequence>  (1) 
MTLNSSTEDGIKRIQDDCPKAGRHNYIFVMIPTLYSIIFVVGIFGNSLVVIVIYFYMKLKTVASVFLLNLALADLCFLLTLPLWAVYTAMEYRWPFGNHLCKIASASVSFNLYASVFLLTCLSIDRYLAIVHPMKSRLRRTMLVAKVTCIIIWLMAGLASLPAVIYRNVYFIENTNITVCAFHYESQNSTLPIGLGLTKNILGFVFPFLIILTSYTLIWKALKKAYKIQKNTPRNDDIFRIIMAIVLFFFFSWVPHQIFTFLDVLIQLGIIRDCEIADIVDTAMPITICIAYFNNCLNPLFYGFLGKKFKKYFLQLLKYIPPTAKSHAGLSTKMSTLSYRPSDNMSSSAKKSASFFEVE

>  <PDB ID(s) of Target Chain>  (1) 


>  <UniProt (SwissProt) Recommended Name of Target Chain>  (1) 
Type-1 angiotensin II receptor B

>  <UniProt (SwissProt) Entry Name of Target Chain>  (1) 
AGTRB_RAT

>  <UniProt (SwissProt) Primary ID of Target Chain>  (1) 
P29089

>  <UniProt (SwissProt) Secondary ID(s) of Target Chain>  (1) 


>  <UniProt (SwissProt) Alternative ID(s) of Target Chain>  (1) 


>  <UniProt (TrEMBL) Submitted Name of Target Chain>  (1) 


>  <UniProt (TrEMBL) Entry Name of Target Chain>  (1) 


>  <UniProt (TrEMBL) Primary ID of Target Chain>  (1) 


>  <UniProt (TrEMBL) Secondary ID(s) of Target Chain>  (1) 


>  <UniProt (TrEMBL) Alternative ID(s) of Target Chain>  (1) 


$$$$
