
     RDKit          2D

 38 42  0  0  0  0  0  0  0  0999 V2000
   -1.2487    2.2512    0.0000 C   0  0  0  0  0  0  0  0  0  0  0  0
   -2.0392    1.9934    0.0000 N   0  0  0  0  0  0  0  0  0  0  0  0
   -1.2487    3.0761    0.0000 C   0  0  0  0  0  0  0  0  0  0  0  0
   -0.5441    1.8388    0.0000 C   0  0  0  0  0  0  0  0  0  0  0  0
   -2.0392    3.3339    0.0000 N   0  0  0  0  0  0  0  0  0  0  0  0
   -2.5204    2.6637    0.0000 C   0  0  0  0  0  0  0  0  0  0  0  0
    0.1776    2.2512    0.0000 N   0  0  0  0  0  0  0  0  0  0  0  0
   -4.6857   -1.6555    0.0000 C   0  0  0  0  0  0  0  0  0  0  0  0
   -5.6996   -0.7791    0.0000 N   0  0  0  0  0  0  0  0  0  0  0  0
   -4.8747   -0.8478    0.0000 N   0  0  0  0  0  0  0  0  0  0  0  0
   -6.0147   -1.5352    0.0000 N   0  0  0  0  0  0  0  0  0  0  0  0
   -0.5441    3.4885    0.0000 C   0  0  0  0  0  0  0  0  0  0  0  0
   -5.3903   -2.0794    0.0000 N   0  0  0  0  0  0  0  0  0  0  0  0
    0.1776    3.0761    0.0000 C   0  0  0  0  0  0  0  0  0  0  0  0
    1.6040    2.2454    0.0000 C   0  0  0  0  0  0  0  0  0  0  0  0
   -3.9182   -1.9649    0.0000 C   0  0  0  0  0  0  0  0  0  0  0  0
    0.8936    1.8330    0.0000 C   0  0  0  0  0  0  0  0  0  0  0  0
   -3.1562   -1.6727    0.0000 C   0  0  0  0  0  0  0  0  0  0  0  0
   -2.7496    1.5924    0.0000 C   0  0  0  0  0  0  0  0  0  0  0  0
    2.3200    1.8330    0.0000 N   0  0  0  0  0  0  0  0  0  0  0  0
   -0.5441    1.0139    0.0000 O   0  0  0  0  0  0  0  0  0  0  0  0
   -3.0188   -0.8592    0.0000 C   0  0  0  0  0  0  0  0  0  0  0  0
    1.6040    3.0703    0.0000 O   0  0  0  0  0  0  0  0  0  0  0  0
   -3.6604   -0.3323    0.0000 C   0  0  0  0  0  0  0  0  0  0  0  0
   -2.2454   -0.5557    0.0000 C   0  0  0  0  0  0  0  0  0  0  0  0
   -2.7610    0.7675    0.0000 C   0  0  0  0  0  0  0  0  0  0  0  0
   -3.3453    2.6637    0.0000 C   0  0  0  0  0  0  0  0  0  0  0  0
   -2.1252    0.2520    0.0000 C   0  0  0  0  0  0  0  0  0  0  0  0
   -3.5343    0.4754    0.0000 C   0  0  0  0  0  0  0  0  0  0  0  0
   -4.0499   -2.7840    0.0000 C   0  0  0  0  0  0  0  0  0  0  0  0
   -2.5090   -2.1883    0.0000 C   0  0  0  0  0  0  0  0  0  0  0  0
    2.3200    1.0081    0.0000 C   0  0  0  0  0  0  0  0  0  0  0  0
    3.1448    1.8388    0.0000 C   0  0  0  0  0  0  0  0  0  0  0  0
   -3.7577    3.3797    0.0000 C   0  0  0  0  0  0  0  0  0  0  0  0
   -4.5826    3.3797    0.0000 C   0  0  0  0  0  0  0  0  0  0  0  0
   -2.6407   -3.0074    0.0000 C   0  0  0  0  0  0  0  0  0  0  0  0
   -3.4140   -3.3053    0.0000 C   0  0  0  0  0  0  0  0  0  0  0  0
   -4.9950    4.1014    0.0000 C   0  0  0  0  0  0  0  0  0  0  0  0
  2  1  1  0
  3  1  2  0
  4  1  1  0
  5  3  1  0
  6  2  1  0
  7  4  1  0
  8 16  1  0
  9 10  1  0
 10  8  1  0
 11 13  1  0
 12  3  1  0
 13  8  2  0
 14  7  1  0
 15 17  1  0
 16 18  1  0
 17  7  1  0
 18 22  1  0
 19  2  1  0
 20 15  1  0
 21  4  2  0
 22 24  2  0
 23 15  2  0
 24 29  1  0
 25 28  2  0
 26 19  1  0
 27  6  1  0
 28 26  1  0
 29 26  2  0
 30 16  2  0
 31 18  2  0
 32 20  1  0
 33 20  1  0
 34 27  1  0
 35 34  1  0
 36 31  1  0
 37 36  2  0
 38 35  1  0
  6  5  2  0
 14 12  2  0
 25 22  1  0
 37 30  1  0
 11  9  2  0
M  END
>  <From>  (1) 
www.bindingDB.org

>  <BindingDB Reactant_set_id>  (1) 
50620745

>  <Ligand InChI>  (1) 
InChI=1S/C28H30N8O2/c1-4-5-10-24-29-23-15-16-35(18-25(37)34(2)3)28(38)26(23)36(24)17-19-11-13-20(14-12-19)21-8-6-7-9-22(21)27-30-32-33-31-27/h6-9,11-16H,4-5,10,17-18H2,1-3H3,(H,30,31,32,33)

>  <Ligand InChI Key>  (1) 
CQVJTTOZTTVVBK-UHFFFAOYSA-N

>  <BindingDB MonomerID>  (1) 
50041677

>  <BindingDB Ligand Name>  (1) 
2-{2-Butyl-4-oxo-3-[2'-(1H-tetrazol-5-yl)-biphenyl-4-ylmethyl]-3,4-dihydro-imidazo[4,5-c]pyridin-5-yl}-N,N-dimethyl-acetamide::CHEMBL288246

>  <Target Name>  (1) 
Type-1 angiotensin II receptor

>  <Target Source Organism According to Curator or DataSource>  (1) 
Oryctolagus cuniculus

>  <Ki (nM)>  (1) 


>  <IC50 (nM)>  (1) 
 0.2

>  <Kd (nM)>  (1) 


>  <EC50 (nM)>  (1) 


>  <kon (M-1-s-1)>  (1) 


>  <koff (s-1)>  (1) 


>  <pH>  (1) 


>  <Temp C>  (1) 


>  <Curation/DataSource>  (1) 
ChEMBL

>  <Article DOI>  (1) 
10.1016/j.bmc.2010.10.043

>  <BindingDB Entry DOI>  (1) 
10.7270/Q2H70G3T

>  <PMID>  (1) 
21071232

>  <PubChem AID>  (1) 


>  <Patent Number>  (1) 


>  <Authors>  (1) 
Naik, P; Murumkar, P; Giridhar, R; Yadav, MR

>  <Institution>  (1) 
The M. S. University of Baroda

>  <Link to Ligand in BindingDB>  (1) 
http://www.bindingdb.org/bind/chemsearch/marvin/MolStructure.jsp?monomerid=50041677

>  <Link to Ligand-Target Pair in BindingDB>  (1) 
http://www.bindingdb.org/jsp/dbsearch/PrimarySearch_ki.jsp?energyterm=kJ/mole&tag=r21&monomerid=50041677&enzyme=Type-1+angiotensin+II+receptor&column=ki&startPg=0&Increment=50&submit=Search

>  <Ligand HET ID in PDB>  (1) 


>  <PDB ID(s) for Ligand-Target Complex>  (1) 


>  <PubChem CID of Ligand>  (1) 
9892554

>  <PubChem SID of Ligand>  (1) 
103973367

>  <ChEBI ID of Ligand>  (1) 


>  <ChEMBL ID of Ligand>  (1) 
CHEMBL288246

>  <DrugBank ID of Ligand>  (1) 


>  <IUPHAR_GRAC ID of Ligand>  (1) 


>  <KEGG ID of Ligand>  (1) 


>  <ZINC ID of Ligand>  (1) 
ZINC29396939

>  <Number of Protein Chains in Target (bigger than 1 implies a multichain complex)>  (1) 
1

>  <BindingDB Target Chain Sequence>  (1) 
MMLNSSTEDGIKRIQDDCPKAGRHNYIFVMIPTLYSIIFVVGIFGNSLAVIVIYFYMKLKTVASVFLLNLALADLCFLLTLPLWAVYTAMEYRWPFGNYLCKIASASVSFNLYASVFLLTCLSIDRYLAIVHPMKSRLRRTMLVAKVTCIIIWLLAGLASLPAIIHRNVFFIENTNITVCAFHYESQNSTLPIGLGLTKNILGFLFPFLIILTSYTLIWKALKKAYEIQKNKPRNDDIFKIIMAIVLFFFFSWVPHQIFTFLDVLIQLGVIHDCRIADIVDTAMPITICIAYFNNCLNPLFYGFLGKKFKKYFLQLLKYIPPKAKSHSNLSTKMSTLSYRPSDNVSSSSKKPVPCFEVE

>  <PDB ID(s) of Target Chain>  (1) 
6DO1,6OS0,6OS1,6OS2

>  <UniProt (SwissProt) Recommended Name of Target Chain>  (1) 
Type-1 angiotensin II receptor

>  <UniProt (SwissProt) Entry Name of Target Chain>  (1) 
AGTR1_RABIT

>  <UniProt (SwissProt) Primary ID of Target Chain>  (1) 
P34976

>  <UniProt (SwissProt) Secondary ID(s) of Target Chain>  (1) 


>  <UniProt (SwissProt) Alternative ID(s) of Target Chain>  (1) 


>  <UniProt (TrEMBL) Submitted Name of Target Chain>  (1) 


>  <UniProt (TrEMBL) Entry Name of Target Chain>  (1) 


>  <UniProt (TrEMBL) Primary ID of Target Chain>  (1) 


>  <UniProt (TrEMBL) Secondary ID(s) of Target Chain>  (1) 


>  <UniProt (TrEMBL) Alternative ID(s) of Target Chain>  (1) 


$$$$
