
     RDKit          2D

 47 52  0  0  0  0  0  0  0  0999 V2000
   19.5259  -15.5597    0.0000 Br  0  0  0  0  0  0  0  0  0  0  0  0
   16.9660  -14.2189    0.0000 C   0  0  0  0  0  0  0  0  0  0  0  0
   16.7976  -15.0209    0.0000 C   0  0  0  0  0  0  0  0  0  0  0  0
   17.4073  -15.5658    0.0000 C   0  0  0  0  0  0  0  0  0  0  0  0
   18.1856  -15.3098    0.0000 C   0  0  0  0  0  0  0  0  0  0  0  0
   18.3507  -14.5039    0.0000 C   0  0  0  0  0  0  0  0  0  0  0  0
   17.7397  -13.9625    0.0000 C   0  0  0  0  0  0  0  0  0  0  0  0
   17.9008  -13.1642    0.0000 C   0  0  0  0  0  0  0  0  0  0  0  0
   18.6777  -12.9073    0.0000 C   0  0  0  0  0  0  0  0  0  0  0  0
   18.8423  -12.1076    0.0000 C   0  0  0  0  0  0  0  0  0  0  0  0
   18.2309  -11.5641    0.0000 C   0  0  0  0  0  0  0  0  0  0  0  0
   17.4523  -11.8258    0.0000 C   0  0  0  0  0  0  0  0  0  0  0  0
   17.2914  -12.6248    0.0000 C   0  0  0  0  0  0  0  0  0  0  0  0
   16.3567  -13.6708    0.0000 C   0  0  0  0  0  0  0  0  0  0  0  0
   16.4388  -12.8577    0.0000 N   0  0  0  0  0  0  0  0  0  0  0  0
   15.6909  -12.5284    0.0000 N   0  0  0  0  0  0  0  0  0  0  0  0
   15.1465  -13.1380    0.0000 N   0  0  0  0  0  0  0  0  0  0  0  0
   15.5581  -13.8439    0.0000 N   0  0  0  0  0  0  0  0  0  0  0  0
   18.3943  -10.7634    0.0000 C   0  0  0  0  0  0  0  0  0  0  0  0
   19.1694  -10.5045    0.0000 N   0  0  0  0  0  0  0  0  0  0  0  0
   19.8296  -10.9815    0.0000 C   0  0  0  0  0  0  0  0  0  0  0  0
   20.4868  -10.4958    0.0000 N   0  0  0  0  0  0  0  0  0  0  0  0
   20.2278   -9.7206    0.0000 C   0  0  0  0  0  0  0  0  0  0  0  0
   19.4107   -9.7274    0.0000 C   0  0  0  0  0  0  0  0  0  0  0  0
   21.2660  -10.7419    0.0000 C   0  0  0  0  0  0  0  0  0  0  0  0
   21.4424  -11.5398    0.0000 C   0  0  0  0  0  0  0  0  0  0  0  0
   20.8377  -12.0900    0.0000 C   0  0  0  0  0  0  0  0  0  0  0  0
   21.0136  -12.8872    0.0000 C   0  0  0  0  0  0  0  0  0  0  0  0
   21.7935  -13.1341    0.0000 C   0  0  0  0  0  0  0  0  0  0  0  0
   22.3977  -12.5775    0.0000 C   0  0  0  0  0  0  0  0  0  0  0  0
   22.2186  -11.7823    0.0000 C   0  0  0  0  0  0  0  0  0  0  0  0
   21.9695  -13.9278    0.0000 C   0  0  0  0  0  0  0  0  0  0  0  0
   21.3657  -14.4801    0.0000 C   0  0  0  0  0  0  0  0  0  0  0  0
   21.5428  -15.2771    0.0000 C   0  0  0  0  0  0  0  0  0  0  0  0
   22.3230  -15.5229    0.0000 C   0  0  0  0  0  0  0  0  0  0  0  0
   22.9264  -14.9655    0.0000 C   0  0  0  0  0  0  0  0  0  0  0  0
   22.7463  -14.1706    0.0000 C   0  0  0  0  0  0  0  0  0  0  0  0
   23.3448  -13.6182    0.0000 C   0  0  0  0  0  0  0  0  0  0  0  0
   24.1462  -13.7782    0.0000 N   0  0  0  0  0  0  0  0  0  0  0  0
   24.5461  -13.0656    0.0000 N   0  0  0  0  0  0  0  0  0  0  0  0
   23.9918  -12.4650    0.0000 N   0  0  0  0  0  0  0  0  0  0  0  0
   23.2495  -12.8066    0.0000 N   0  0  0  0  0  0  0  0  0  0  0  0
   20.7027   -9.0555    0.0000 C   0  0  0  0  0  0  0  0  0  0  0  0
   21.5161   -9.1342    0.0000 C   0  0  0  0  0  0  0  0  0  0  0  0
   21.9909   -8.4773    0.0000 C   0  0  0  0  0  0  0  0  0  0  0  0
   22.8043   -8.5554    0.0000 C   0  0  0  0  0  0  0  0  0  0  0  0
   18.9233   -9.0715    0.0000 Cl  0  0  0  0  0  0  0  0  0  0  0  0
  2  3  2  0
  3  4  1  0
  4  5  2  0
  5  6  1  0
  6  7  2  0
  7  2  1  0
  8  9  2  0
  9 10  1  0
 10 11  2  0
 11 12  1  0
 12 13  2  0
 13  8  1  0
  7  8  1  0
 14 15  1  0
 15 16  2  0
 16 17  1  0
 17 18  1  0
 18 14  2  0
  2 14  1  0
 11 19  1  0
 19 20  1  0
 20 21  2  0
 21 22  1  0
 22 23  1  0
 23 24  2  0
 24 20  1  0
 22 25  1  0
 25 26  1  0
 26 27  2  0
 27 28  1  0
 28 29  2  0
 29 30  1  0
 30 31  2  0
 31 26  1  0
 32 33  2  0
 33 34  1  0
 34 35  2  0
 35 36  1  0
 36 37  2  0
 37 32  1  0
 29 32  1  0
 38 39  2  0
 39 40  1  0
 40 41  1  0
 41 42  2  0
 42 38  1  0
 37 38  1  0
 23 43  1  0
 43 44  1  0
 44 45  1  0
 45 46  1  0
 24 47  1  0
M  CHG  2   1  -1  20   1
M  END
>  <From>  (1) 
www.bindingDB.org

>  <BindingDB Reactant_set_id>  (1) 
51192209

>  <Ligand InChI>  (1) 
InChI=1S/C35H32ClN10/c1-2-3-12-32-33(36)46(22-25-15-19-27(20-16-25)29-9-5-7-11-31(29)35-39-43-44-40-35)23-45(32)21-24-13-17-26(18-14-24)28-8-4-6-10-30(28)34-37-41-42-38-34/h4-11,13-20,23H,2-3,12,21-22H2,1H3,(H,37,38,41,42)(H,39,40,43,44)/q+1

>  <Ligand InChI Key>  (1) 
DBEHFGOFSLRSJD-UHFFFAOYSA-N

>  <BindingDB MonomerID>  (1) 
50490703

>  <BindingDB Ligand Name>  (1) 
CHEMBL2337678

>  <Target Name>  (1) 
Type-1 angiotensin II receptor

>  <Target Source Organism According to Curator or DataSource>  (1) 
Homo sapiens

>  <Ki (nM)>  (1) 


>  <IC50 (nM)>  (1) 
 832

>  <Kd (nM)>  (1) 


>  <EC50 (nM)>  (1) 


>  <kon (M-1-s-1)>  (1) 


>  <koff (s-1)>  (1) 


>  <pH>  (1) 


>  <Temp C>  (1) 


>  <Curation/DataSource>  (1) 
ChEMBL

>  <Article DOI>  (1) 
10.1016/j.ejmech.2012.12.044

>  <BindingDB Entry DOI>  (1) 
10.7270/Q2DF6V47

>  <PMID>  (1) 
23376252

>  <PubChem AID>  (1) 


>  <Patent Number>  (1) 


>  <Authors>  (1) 
Agelis, G; Resvani, A; Koukoulitsa, C; Tůmová, T; Slaninová, J; Kalavrizioti, D; Spyridaki, K; Afantitis, A; Melagraki, G; Siafaka, A; Gkini, E; Megariotis, G; Grdadolnik, SG; Papadopoulos, MG; Vlahakos, D; Maragoudakis, M; Liapakis, G; Mavromoustakos, T; Matsoukas, J

>  <Institution>  (1) 
University of Patras

>  <Link to Ligand in BindingDB>  (1) 
http://www.bindingdb.org/bind/chemsearch/marvin/MolStructure.jsp?monomerid=50490703

>  <Link to Ligand-Target Pair in BindingDB>  (1) 
http://www.bindingdb.org/jsp/dbsearch/PrimarySearch_ki.jsp?energyterm=kJ/mole&tag=r21&monomerid=50490703&enzyme=Type-1+angiotensin+II+receptor&column=ki&startPg=0&Increment=50&submit=Search

>  <Ligand HET ID in PDB>  (1) 


>  <PDB ID(s) for Ligand-Target Complex>  (1) 


>  <PubChem CID of Ligand>  (1) 
71653747

>  <PubChem SID of Ligand>  (1) 
433957968

>  <ChEBI ID of Ligand>  (1) 


>  <ChEMBL ID of Ligand>  (1) 


>  <DrugBank ID of Ligand>  (1) 


>  <IUPHAR_GRAC ID of Ligand>  (1) 


>  <KEGG ID of Ligand>  (1) 


>  <ZINC ID of Ligand>  (1) 


>  <Number of Protein Chains in Target (bigger than 1 implies a multichain complex)>  (1) 
1

>  <BindingDB Target Chain Sequence>  (1) 
MILNSSTEDGIKRIQDDCPKAGRHNYIFVMIPTLYSIIFVVGIFGNSLVVIVIYFYMKLKTVASVFLLNLALADLCFLLTLPLWAVYTAMEYRWPFGNYLCKIASASVSFNLYASVFLLTCLSIDRYLAIVHPMKSRLRRTMLVAKVTCIIIWLLAGLASLPAIIHRNVFFIENTNITVCAFHYESQNSTLPIGLGLTKNILGFLFPFLIILTSYTLIWKALKKAYEIQKNKPRNDDIFKIIMAIVLFFFFSWIPHQIFTFLDVLIQLGIIRDCRIADIVDTAMPITICIAYFNNCLNPLFYGFLGKKFKRYFLQLLKYIPPKAKSHSNLSTKMSTLSYRPSDNVSSSTKKPAPCFEVE

>  <PDB ID(s) of Target Chain>  (1) 
6DO1,6OS0,6OS1,6OS2

>  <UniProt (SwissProt) Recommended Name of Target Chain>  (1) 
Type-1 angiotensin II receptor

>  <UniProt (SwissProt) Entry Name of Target Chain>  (1) 
AGTR1_HUMAN

>  <UniProt (SwissProt) Primary ID of Target Chain>  (1) 
P30556

>  <UniProt (SwissProt) Secondary ID(s) of Target Chain>  (1) 
Q13725 Q8TBK4

>  <UniProt (SwissProt) Alternative ID(s) of Target Chain>  (1) 


>  <UniProt (TrEMBL) Submitted Name of Target Chain>  (1) 


>  <UniProt (TrEMBL) Entry Name of Target Chain>  (1) 


>  <UniProt (TrEMBL) Primary ID of Target Chain>  (1) 


>  <UniProt (TrEMBL) Secondary ID(s) of Target Chain>  (1) 


>  <UniProt (TrEMBL) Alternative ID(s) of Target Chain>  (1) 


$$$$
