
     RDKit          2D

 31 35  0  0  0  0  0  0  0  0999 V2000
    1.5009   -5.8490    0.0000 N   0  0  0  0  0  0  0  0  0  0  0  0
    1.8275   -5.0928    0.0000 C   0  0  0  0  0  0  0  0  0  0  0  0
    1.2088   -4.5543    0.0000 N   0  0  0  0  0  0  0  0  0  0  0  0
    0.4984   -4.9725    0.0000 N   0  0  0  0  0  0  0  0  0  0  0  0
    0.6760   -5.7802    0.0000 C   0  0  0  0  0  0  0  0  0  0  0  0
    5.1959   -5.0870    0.0000 C   0  0  0  0  0  0  0  0  0  0  0  0
    4.3710   -5.0240    0.0000 N   0  0  0  0  0  0  0  0  0  0  0  0
    4.1819   -4.2163    0.0000 N   0  0  0  0  0  0  0  0  0  0  0  0
    5.5052   -4.3308    0.0000 N   0  0  0  0  0  0  0  0  0  0  0  0
    4.8866   -3.7867    0.0000 N   0  0  0  0  0  0  0  0  0  0  0  0
    1.2775   -3.7351    0.0000 C   0  0  0  0  0  0  0  0  0  0  0  0
    5.6255   -5.7916    0.0000 C   0  0  0  0  0  0  0  0  0  0  0  0
    5.2303   -6.5134    0.0000 C   0  0  0  0  0  0  0  0  0  0  0  0
    1.7530   -3.0591    0.0000 C   0  0  0  0  0  0  0  0  0  0  0  0
    0.9338   -2.9789    0.0000 C   0  0  0  0  0  0  0  0  0  0  0  0
    1.9306   -6.5708    0.0000 C   0  0  0  0  0  0  0  0  0  0  0  0
    2.6352   -4.9152    0.0000 O   0  0  0  0  0  0  0  0  0  0  0  0
    4.4054   -6.5306    0.0000 C   0  0  0  0  0  0  0  0  0  0  0  0
    3.9871   -5.8260    0.0000 C   0  0  0  0  0  0  0  0  0  0  0  0
    4.0101   -7.2524    0.0000 C   0  0  0  0  0  0  0  0  0  0  0  0
    2.7555   -6.5536    0.0000 C   0  0  0  0  0  0  0  0  0  0  0  0
    0.1375   -6.3989    0.0000 C   0  0  0  0  0  0  0  0  0  0  0  0
    3.1508   -5.8318    0.0000 C   0  0  0  0  0  0  0  0  0  0  0  0
    3.1794   -7.2582    0.0000 C   0  0  0  0  0  0  0  0  0  0  0  0
    6.4505   -5.7630    0.0000 C   0  0  0  0  0  0  0  0  0  0  0  0
    5.6541   -7.2181    0.0000 C   0  0  0  0  0  0  0  0  0  0  0  0
   -0.6702   -6.2442    0.0000 C   0  0  0  0  0  0  0  0  0  0  0  0
   -1.2144   -6.8629    0.0000 C   0  0  0  0  0  0  0  0  0  0  0  0
    6.4791   -7.2066    0.0000 C   0  0  0  0  0  0  0  0  0  0  0  0
    6.8801   -6.4791    0.0000 C   0  0  0  0  0  0  0  0  0  0  0  0
   -2.0222   -6.7025    0.0000 C   0  0  0  0  0  0  0  0  0  0  0  0
  2  1  1  0
  3  2  1  0
  4  5  2  0
  5  1  1  0
  6 12  1  0
  7  6  1  0
  8  7  1  0
  9  6  2  0
 10  9  1  0
 11  3  1  0
 12 13  1  0
 13 18  1  0
 14 11  1  0
 15 11  1  0
 16  1  1  0
 17  2  2  0
 18 20  2  0
 19 23  2  0
 20 24  1  0
 21 16  1  0
 22  5  1  0
 23 21  1  0
 24 21  2  0
 25 12  2  0
 26 13  2  0
 27 22  1  0
 28 27  1  0
 29 26  1  0
 30 29  2  0
 31 28  1  0
  4  3  1  0
 19 18  1  0
 14 15  1  0
 25 30  1  0
  8 10  2  0
M  END
>  <From>  (1) 
www.bindingDB.org

>  <BindingDB Reactant_set_id>  (1) 
50060463

>  <Ligand InChI>  (1) 
InChI=1S/C23H25N7O/c1-2-3-8-21-26-30(18-13-14-18)23(31)29(21)15-16-9-11-17(12-10-16)19-6-4-5-7-20(19)22-24-27-28-25-22/h4-7,9-12,18H,2-3,8,13-15H2,1H3,(H,24,25,27,28)

>  <Ligand InChI Key>  (1) 
QOHPRLONBGDDDC-UHFFFAOYSA-N

>  <BindingDB MonomerID>  (1) 
50044484

>  <BindingDB Ligand Name>  (1) 
5-Butyl-2-cyclopropyl-4-[2'-(2H-tetrazol-5-yl)-biphenyl-4-ylmethyl]-2,4-dihydro-[1,2,4]triazol-3-one::CHEMBL87276

>  <Target Name>  (1) 
Type-1 angiotensin II receptor

>  <Target Source Organism According to Curator or DataSource>  (1) 
Oryctolagus cuniculus

>  <Ki (nM)>  (1) 


>  <IC50 (nM)>  (1) 
 100

>  <Kd (nM)>  (1) 


>  <EC50 (nM)>  (1) 


>  <kon (M-1-s-1)>  (1) 


>  <koff (s-1)>  (1) 


>  <pH>  (1) 


>  <Temp C>  (1) 


>  <Curation/DataSource>  (1) 
ChEMBL

>  <Article DOI>  (1) 
10.1021/jm00069a015

>  <BindingDB Entry DOI>  (1) 
10.7270/Q2KP817C

>  <PMID>  (1) 
8355255

>  <PubChem AID>  (1) 


>  <Patent Number>  (1) 


>  <Authors>  (1) 
Chang, LL; Ashton, WT; Flanagan, KL; Strelitz, RA; MacCoss, M; Greenlee, WJ; Chang, RS; Lotti, VJ; Faust, KA; Chen, TB

>  <Institution>  (1) 
Merck Research Laboratories

>  <Link to Ligand in BindingDB>  (1) 
http://www.bindingdb.org/bind/chemsearch/marvin/MolStructure.jsp?monomerid=50044484

>  <Link to Ligand-Target Pair in BindingDB>  (1) 
http://www.bindingdb.org/jsp/dbsearch/PrimarySearch_ki.jsp?energyterm=kJ/mole&tag=r21&monomerid=50044484&enzyme=Type-1+angiotensin+II+receptor&column=ki&startPg=0&Increment=50&submit=Search

>  <Ligand HET ID in PDB>  (1) 


>  <PDB ID(s) for Ligand-Target Complex>  (1) 


>  <PubChem CID of Ligand>  (1) 
14956777

>  <PubChem SID of Ligand>  (1) 
103975722

>  <ChEBI ID of Ligand>  (1) 


>  <ChEMBL ID of Ligand>  (1) 
CHEMBL87276

>  <DrugBank ID of Ligand>  (1) 


>  <IUPHAR_GRAC ID of Ligand>  (1) 


>  <KEGG ID of Ligand>  (1) 


>  <ZINC ID of Ligand>  (1) 
ZINC13832669

>  <Number of Protein Chains in Target (bigger than 1 implies a multichain complex)>  (1) 
1

>  <BindingDB Target Chain Sequence>  (1) 
MMLNSSTEDGIKRIQDDCPKAGRHNYIFVMIPTLYSIIFVVGIFGNSLAVIVIYFYMKLKTVASVFLLNLALADLCFLLTLPLWAVYTAMEYRWPFGNYLCKIASASVSFNLYASVFLLTCLSIDRYLAIVHPMKSRLRRTMLVAKVTCIIIWLLAGLASLPAIIHRNVFFIENTNITVCAFHYESQNSTLPIGLGLTKNILGFLFPFLIILTSYTLIWKALKKAYEIQKNKPRNDDIFKIIMAIVLFFFFSWVPHQIFTFLDVLIQLGVIHDCRIADIVDTAMPITICIAYFNNCLNPLFYGFLGKKFKKYFLQLLKYIPPKAKSHSNLSTKMSTLSYRPSDNVSSSSKKPVPCFEVE

>  <PDB ID(s) of Target Chain>  (1) 
6DO1,6OS0,6OS1,6OS2

>  <UniProt (SwissProt) Recommended Name of Target Chain>  (1) 
Type-1 angiotensin II receptor

>  <UniProt (SwissProt) Entry Name of Target Chain>  (1) 
AGTR1_RABIT

>  <UniProt (SwissProt) Primary ID of Target Chain>  (1) 
P34976

>  <UniProt (SwissProt) Secondary ID(s) of Target Chain>  (1) 


>  <UniProt (SwissProt) Alternative ID(s) of Target Chain>  (1) 


>  <UniProt (TrEMBL) Submitted Name of Target Chain>  (1) 


>  <UniProt (TrEMBL) Entry Name of Target Chain>  (1) 


>  <UniProt (TrEMBL) Primary ID of Target Chain>  (1) 


>  <UniProt (TrEMBL) Secondary ID(s) of Target Chain>  (1) 


>  <UniProt (TrEMBL) Alternative ID(s) of Target Chain>  (1) 


$$$$
