
     RDKit          2D

 34 37  0  0  0  0  0  0  0  0999 V2000
    4.8641   -1.3464    0.0000 N   0  0  0  0  0  0  0  0  0  0  0  0
    5.5230   -0.8594    0.0000 C   0  0  0  0  0  0  0  0  0  0  0  0
    4.4402   -0.0859    0.0000 N   0  0  0  0  0  0  0  0  0  0  0  0
    4.1938   -0.8652    0.0000 C   0  0  0  0  0  0  0  0  0  0  0  0
    5.2652   -0.0745    0.0000 C   0  0  0  0  0  0  0  0  0  0  0  0
    6.3308   -1.0198    0.0000 N   0  0  0  0  0  0  0  0  0  0  0  0
    3.4433   -3.8328    0.0000 C   0  0  0  0  0  0  0  0  0  0  0  0
    2.0167   -3.8328    0.0000 O   0  0  0  0  0  0  0  0  0  0  0  0
    2.7328   -3.4203    0.0000 C   0  0  0  0  0  0  0  0  0  0  0  0
    2.0167   -4.6578    0.0000 C   0  0  0  0  0  0  0  0  0  0  0  0
    5.8152    0.5328    0.0000 C   0  0  0  0  0  0  0  0  0  0  0  0
    2.4808   -5.1964    0.0000 C   0  0  0  0  0  0  0  0  0  0  0  0
    4.8698   -2.1714    0.0000 C   0  0  0  0  0  0  0  0  0  0  0  0
    3.4261   -4.3714    0.0000 C   0  0  0  0  0  0  0  0  0  0  0  0
    4.1594   -3.4203    0.0000 C   0  0  0  0  0  0  0  0  0  0  0  0
    6.8808   -0.4125    0.0000 C   0  0  0  0  0  0  0  0  0  0  0  0
    6.6172    0.3724    0.0000 C   0  0  0  0  0  0  0  0  0  0  0  0
    4.1594   -2.5839    0.0000 C   0  0  0  0  0  0  0  0  0  0  0  0
    3.3859   -5.4886    0.0000 O   0  0  0  0  0  0  0  0  0  0  0  0
    2.7328   -2.5953    0.0000 C   0  0  0  0  0  0  0  0  0  0  0  0
    1.2948   -5.0703    0.0000 C   0  0  0  0  0  0  0  0  0  0  0  0
    2.6527   -4.4573    0.0000 O   0  0  0  0  0  0  0  0  0  0  0  0
    2.1370   -5.9698    0.0000 O   0  0  0  0  0  0  0  0  0  0  0  0
    3.4433   -2.1714    0.0000 C   0  0  0  0  0  0  0  0  0  0  0  0
    3.4089   -1.1230    0.0000 C   0  0  0  0  0  0  0  0  0  0  0  0
    5.5516    1.3177    0.0000 C   0  0  0  0  0  0  0  0  0  0  0  0
    4.0277   -4.6292    0.0000 C   0  0  0  0  0  0  0  0  0  0  0  0
    7.6886   -0.5730    0.0000 C   0  0  0  0  0  0  0  0  0  0  0  0
    0.5902   -4.6464    0.0000 C   0  0  0  0  0  0  0  0  0  0  0  0
    1.2948   -5.8839    0.0000 C   0  0  0  0  0  0  0  0  0  0  0  0
    2.7902   -0.5844    0.0000 C   0  0  0  0  0  0  0  0  0  0  0  0
   -0.1317   -5.0589    0.0000 C   0  0  0  0  0  0  0  0  0  0  0  0
    0.5902   -6.2964    0.0000 C   0  0  0  0  0  0  0  0  0  0  0  0
   -0.1317   -5.8839    0.0000 C   0  0  0  0  0  0  0  0  0  0  0  0
  2  1  1  0
  3  4  2  0
  4  1  1  0
  5  2  2  0
  6  2  1  0
  7 15  2  0
  8  9  1  0
  9 20  2  0
 10  8  1  0
 11  5  1  0
 12 10  1  0
 13  1  1  0
 14  7  1  0
 15 18  1  0
 16  6  2  0
 17 16  1  0
 18 13  1  0
 19 12  2  0
 20 24  1  0
 21 10  1  0
 22 14  2  0
 23 12  1  0
 24 18  2  0
 25  4  1  0
 26 11  1  0
 27 14  1  0
 28 16  1  0
 29 21  2  0
 30 21  1  0
 31 25  1  0
 32 29  1  0
 33 30  2  0
 34 33  1  0
  5  3  1  0
 17 11  2  0
  9  7  1  0
 32 34  2  0
M  END
>  <From>  (1) 
www.bindingDB.org

>  <BindingDB Reactant_set_id>  (1) 
50003612

>  <Ligand InChI>  (1) 
InChI=1S/C27H27N3O4/c1-5-23-29-24-16(2)13-17(3)28-26(24)30(23)15-19-11-12-22(21(14-19)18(4)31)34-25(27(32)33)20-9-7-6-8-10-20/h6-14,25H,5,15H2,1-4H3,(H,32,33)

>  <Ligand InChI Key>  (1) 
NRSPDTUSPMLTLZ-UHFFFAOYSA-N

>  <BindingDB MonomerID>  (1) 
50284461

>  <BindingDB Ligand Name>  (1) 
CHEMBL278955::[2-Acetyl-4-(2-ethyl-5,7-dimethyl-imidazo[4,5-b]pyridin-3-ylmethyl)-phenoxy]-phenyl-acetic acid

>  <Target Name>  (1) 
Type-1 angiotensin II receptor

>  <Target Source Organism According to Curator or DataSource>  (1) 
Oryctolagus cuniculus

>  <Ki (nM)>  (1) 


>  <IC50 (nM)>  (1) 
 62

>  <Kd (nM)>  (1) 


>  <EC50 (nM)>  (1) 


>  <kon (M-1-s-1)>  (1) 


>  <koff (s-1)>  (1) 


>  <pH>  (1) 


>  <Temp C>  (1) 


>  <Curation/DataSource>  (1) 
ChEMBL

>  <Article DOI>  (1) 
10.1016/0960-894X(95)00185-V

>  <BindingDB Entry DOI>  (1) 
10.7270/Q2J67GV9

>  <PMID>  (1) 


>  <PubChem AID>  (1) 


>  <Patent Number>  (1) 


>  <Authors>  (1) 
Walsh, TF; Fitch, KJ; Chang, RS; Faust, KA; Chen, TB; Kivlighn, SD; Zingaro, GJ; Lotti, VJ; Siegl, PK; Patchett, AA; Greenlee, WJ

>  <Institution>  (1) 
TBA

>  <Link to Ligand in BindingDB>  (1) 
http://www.bindingdb.org/bind/chemsearch/marvin/MolStructure.jsp?monomerid=50284461

>  <Link to Ligand-Target Pair in BindingDB>  (1) 
http://www.bindingdb.org/jsp/dbsearch/PrimarySearch_ki.jsp?energyterm=kJ/mole&tag=r21&monomerid=50284461&enzyme=Type-1+angiotensin+II+receptor&column=ki&startPg=0&Increment=50&submit=Search

>  <Ligand HET ID in PDB>  (1) 


>  <PDB ID(s) for Ligand-Target Complex>  (1) 


>  <PubChem CID of Ligand>  (1) 
19385598

>  <PubChem SID of Ligand>  (1) 
104126118

>  <ChEBI ID of Ligand>  (1) 


>  <ChEMBL ID of Ligand>  (1) 
CHEMBL278955

>  <DrugBank ID of Ligand>  (1) 


>  <IUPHAR_GRAC ID of Ligand>  (1) 


>  <KEGG ID of Ligand>  (1) 


>  <ZINC ID of Ligand>  (1) 
ZINC36176010

>  <Number of Protein Chains in Target (bigger than 1 implies a multichain complex)>  (1) 
1

>  <BindingDB Target Chain Sequence>  (1) 
MMLNSSTEDGIKRIQDDCPKAGRHNYIFVMIPTLYSIIFVVGIFGNSLAVIVIYFYMKLKTVASVFLLNLALADLCFLLTLPLWAVYTAMEYRWPFGNYLCKIASASVSFNLYASVFLLTCLSIDRYLAIVHPMKSRLRRTMLVAKVTCIIIWLLAGLASLPAIIHRNVFFIENTNITVCAFHYESQNSTLPIGLGLTKNILGFLFPFLIILTSYTLIWKALKKAYEIQKNKPRNDDIFKIIMAIVLFFFFSWVPHQIFTFLDVLIQLGVIHDCRIADIVDTAMPITICIAYFNNCLNPLFYGFLGKKFKKYFLQLLKYIPPKAKSHSNLSTKMSTLSYRPSDNVSSSSKKPVPCFEVE

>  <PDB ID(s) of Target Chain>  (1) 
6DO1,6OS0,6OS1,6OS2

>  <UniProt (SwissProt) Recommended Name of Target Chain>  (1) 
Type-1 angiotensin II receptor

>  <UniProt (SwissProt) Entry Name of Target Chain>  (1) 
AGTR1_RABIT

>  <UniProt (SwissProt) Primary ID of Target Chain>  (1) 
P34976

>  <UniProt (SwissProt) Secondary ID(s) of Target Chain>  (1) 


>  <UniProt (SwissProt) Alternative ID(s) of Target Chain>  (1) 


>  <UniProt (TrEMBL) Submitted Name of Target Chain>  (1) 


>  <UniProt (TrEMBL) Entry Name of Target Chain>  (1) 


>  <UniProt (TrEMBL) Primary ID of Target Chain>  (1) 


>  <UniProt (TrEMBL) Secondary ID(s) of Target Chain>  (1) 


>  <UniProt (TrEMBL) Alternative ID(s) of Target Chain>  (1) 


$$$$
