
     RDKit          2D

 35 39  0  0  0  0  0  0  0  0999 V2000
    4.2917   -3.0542    0.0000 N   0  0  0  0  0  0  0  0  0  0  0  0
    4.9625   -2.5667    0.0000 C   0  0  0  0  0  0  0  0  0  0  0  0
    4.7042   -1.7792    0.0000 N   0  0  0  0  0  0  0  0  0  0  0  0
    3.8792   -1.7792    0.0000 N   0  0  0  0  0  0  0  0  0  0  0  0
    7.8542   -4.2875    0.0000 C   0  0  0  0  0  0  0  0  0  0  0  0
    7.4250   -3.0167    0.0000 N   0  0  0  0  0  0  0  0  0  0  0  0
    7.1792   -3.8042    0.0000 N   0  0  0  0  0  0  0  0  0  0  0  0
    8.2542   -3.0125    0.0000 N   0  0  0  0  0  0  0  0  0  0  0  0
    3.6292   -2.5667    0.0000 C   0  0  0  0  0  0  0  0  0  0  0  0
    8.5167   -3.7917    0.0000 N   0  0  0  0  0  0  0  0  0  0  0  0
    7.8625   -5.1167    0.0000 C   0  0  0  0  0  0  0  0  0  0  0  0
    7.1542   -5.5292    0.0000 C   0  0  0  0  0  0  0  0  0  0  0  0
    5.7875   -2.5667    0.0000 S   0  0  0  0  0  0  0  0  0  0  0  0
    4.2917   -3.8792    0.0000 C   0  0  0  0  0  0  0  0  0  0  0  0
    6.4375   -5.1167    0.0000 C   0  0  0  0  0  0  0  0  0  0  0  0
    6.4375   -4.2917    0.0000 C   0  0  0  0  0  0  0  0  0  0  0  0
    5.7292   -5.5292    0.0000 C   0  0  0  0  0  0  0  0  0  0  0  0
    5.0042   -4.2917    0.0000 C   0  0  0  0  0  0  0  0  0  0  0  0
    6.1917   -1.8500    0.0000 C   0  0  0  0  0  0  0  0  0  0  0  0
    5.7250   -3.8792    0.0000 C   0  0  0  0  0  0  0  0  0  0  0  0
    5.0125   -5.1167    0.0000 C   0  0  0  0  0  0  0  0  0  0  0  0
    2.8042   -2.5667    0.0000 C   0  0  0  0  0  0  0  0  0  0  0  0
    5.7792   -1.1417    0.0000 C   0  0  0  0  0  0  0  0  0  0  0  0
    8.5750   -5.5250    0.0000 C   0  0  0  0  0  0  0  0  0  0  0  0
    7.1500   -6.3542    0.0000 C   0  0  0  0  0  0  0  0  0  0  0  0
    6.1875   -0.4292    0.0000 C   0  0  0  0  0  0  0  0  0  0  0  0
    4.9667   -1.1542    0.0000 C   0  0  0  0  0  0  0  0  0  0  0  0
    2.3917   -1.8542    0.0000 C   0  0  0  0  0  0  0  0  0  0  0  0
    1.5667   -1.8542    0.0000 C   0  0  0  0  0  0  0  0  0  0  0  0
    7.8625   -6.7667    0.0000 C   0  0  0  0  0  0  0  0  0  0  0  0
    8.5792   -6.3542    0.0000 C   0  0  0  0  0  0  0  0  0  0  0  0
    1.1542   -1.1375    0.0000 C   0  0  0  0  0  0  0  0  0  0  0  0
    4.5500   -0.4500    0.0000 C   0  0  0  0  0  0  0  0  0  0  0  0
    5.7750    0.2708    0.0000 C   0  0  0  0  0  0  0  0  0  0  0  0
    4.9542    0.2708    0.0000 C   0  0  0  0  0  0  0  0  0  0  0  0
  2  1  1  0
  3  2  2  0
  4  9  2  0
  5 11  1  0
  6  7  1  0
  7  5  1  0
  8 10  1  0
  9  1  1  0
 10  5  2  0
 11 12  1  0
 12 15  1  0
 13  2  1  0
 14  1  1  0
 15 17  2  0
 16 20  2  0
 17 21  1  0
 18 14  1  0
 19 13  1  0
 20 18  1  0
 21 18  2  0
 22  9  1  0
 23 19  1  0
 24 11  2  0
 25 12  2  0
 26 23  2  0
 27 23  1  0
 28 22  1  0
 29 28  1  0
 30 25  1  0
 31 30  2  0
 32 29  1  0
 33 27  2  0
 34 26  1  0
 35 33  1  0
  3  4  1  0
 15 16  1  0
 34 35  2  0
 24 31  1  0
  8  6  2  0
M  END
>  <From>  (1) 
www.bindingDB.org

>  <BindingDB Reactant_set_id>  (1) 
50035040

>  <Ligand InChI>  (1) 
InChI=1S/C27H27N7S/c1-2-3-13-25-28-31-27(35-19-21-9-5-4-6-10-21)34(25)18-20-14-16-22(17-15-20)23-11-7-8-12-24(23)26-29-32-33-30-26/h4-12,14-17H,2-3,13,18-19H2,1H3,(H,29,30,32,33)

>  <Ligand InChI Key>  (1) 
KESWQOVFFJCBRJ-UHFFFAOYSA-N

>  <BindingDB MonomerID>  (1) 
50047831

>  <BindingDB Ligand Name>  (1) 
5-[4'-(3-Benzylsulfanyl-5-butyl-[1,2,4]triazol-4-ylmethyl)-biphenyl-2-yl]-1H-tetrazole::CHEMBL345717

>  <Target Name>  (1) 
Type-1 angiotensin II receptor

>  <Target Source Organism According to Curator or DataSource>  (1) 
Oryctolagus cuniculus

>  <Ki (nM)>  (1) 


>  <IC50 (nM)>  (1) 
 7.1

>  <Kd (nM)>  (1) 


>  <EC50 (nM)>  (1) 


>  <kon (M-1-s-1)>  (1) 


>  <koff (s-1)>  (1) 


>  <pH>  (1) 


>  <Temp C>  (1) 


>  <Curation/DataSource>  (1) 
ChEMBL

>  <Article DOI>  (1) 
10.1021/jm00057a009

>  <BindingDB Entry DOI>  (1) 
10.7270/Q2P55MKH

>  <PMID>  (1) 
8496939

>  <PubChem AID>  (1) 


>  <Patent Number>  (1) 


>  <Authors>  (1) 
Ashton, WT; Cantone, CL; Chang, LL; Hutchins, SM; Strelitz, RA; MacCoss, M; Chang, RS; Lotti, VJ; Faust, KA; Chen, TB

>  <Institution>  (1) 
Merck Research Laboratories

>  <Link to Ligand in BindingDB>  (1) 
http://www.bindingdb.org/bind/chemsearch/marvin/MolStructure.jsp?monomerid=50047831

>  <Link to Ligand-Target Pair in BindingDB>  (1) 
http://www.bindingdb.org/jsp/dbsearch/PrimarySearch_ki.jsp?energyterm=kJ/mole&tag=r21&monomerid=50047831&enzyme=Type-1+angiotensin+II+receptor&column=ki&startPg=0&Increment=50&submit=Search

>  <Ligand HET ID in PDB>  (1) 


>  <PDB ID(s) for Ligand-Target Complex>  (1) 


>  <PubChem CID of Ligand>  (1) 
10096735

>  <PubChem SID of Ligand>  (1) 
103978395

>  <ChEBI ID of Ligand>  (1) 


>  <ChEMBL ID of Ligand>  (1) 
CHEMBL345717

>  <DrugBank ID of Ligand>  (1) 


>  <IUPHAR_GRAC ID of Ligand>  (1) 


>  <KEGG ID of Ligand>  (1) 


>  <ZINC ID of Ligand>  (1) 
ZINC13825643

>  <Number of Protein Chains in Target (bigger than 1 implies a multichain complex)>  (1) 
1

>  <BindingDB Target Chain Sequence>  (1) 
MMLNSSTEDGIKRIQDDCPKAGRHNYIFVMIPTLYSIIFVVGIFGNSLAVIVIYFYMKLKTVASVFLLNLALADLCFLLTLPLWAVYTAMEYRWPFGNYLCKIASASVSFNLYASVFLLTCLSIDRYLAIVHPMKSRLRRTMLVAKVTCIIIWLLAGLASLPAIIHRNVFFIENTNITVCAFHYESQNSTLPIGLGLTKNILGFLFPFLIILTSYTLIWKALKKAYEIQKNKPRNDDIFKIIMAIVLFFFFSWVPHQIFTFLDVLIQLGVIHDCRIADIVDTAMPITICIAYFNNCLNPLFYGFLGKKFKKYFLQLLKYIPPKAKSHSNLSTKMSTLSYRPSDNVSSSSKKPVPCFEVE

>  <PDB ID(s) of Target Chain>  (1) 
6DO1,6OS0,6OS1,6OS2

>  <UniProt (SwissProt) Recommended Name of Target Chain>  (1) 
Type-1 angiotensin II receptor

>  <UniProt (SwissProt) Entry Name of Target Chain>  (1) 
AGTR1_RABIT

>  <UniProt (SwissProt) Primary ID of Target Chain>  (1) 
P34976

>  <UniProt (SwissProt) Secondary ID(s) of Target Chain>  (1) 


>  <UniProt (SwissProt) Alternative ID(s) of Target Chain>  (1) 


>  <UniProt (TrEMBL) Submitted Name of Target Chain>  (1) 


>  <UniProt (TrEMBL) Entry Name of Target Chain>  (1) 


>  <UniProt (TrEMBL) Primary ID of Target Chain>  (1) 


>  <UniProt (TrEMBL) Secondary ID(s) of Target Chain>  (1) 


>  <UniProt (TrEMBL) Alternative ID(s) of Target Chain>  (1) 


$$$$
