
     RDKit          2D

 39 43  0  0  0  0  0  0  0  0999 V2000
    4.5079   -7.4807    0.0000 N   0  0  0  0  0  0  0  0  0  0  0  0
    4.8344   -6.7189    0.0000 C   0  0  0  0  0  0  0  0  0  0  0  0
    4.2158   -6.1747    0.0000 N   0  0  0  0  0  0  0  0  0  0  0  0
    3.5055   -6.5986    0.0000 N   0  0  0  0  0  0  0  0  0  0  0  0
    3.6831   -7.4062    0.0000 C   0  0  0  0  0  0  0  0  0  0  0  0
    8.2024   -6.7074    0.0000 C   0  0  0  0  0  0  0  0  0  0  0  0
    7.3776   -6.6387    0.0000 N   0  0  0  0  0  0  0  0  0  0  0  0
    7.1886   -5.8425    0.0000 N   0  0  0  0  0  0  0  0  0  0  0  0
    8.5117   -5.9514    0.0000 N   0  0  0  0  0  0  0  0  0  0  0  0
    7.8931   -5.4129    0.0000 N   0  0  0  0  0  0  0  0  0  0  0  0
    8.6320   -7.4120    0.0000 C   0  0  0  0  0  0  0  0  0  0  0  0
    4.2845   -5.3499    0.0000 C   0  0  0  0  0  0  0  0  0  0  0  0
    8.2368   -8.1337    0.0000 C   0  0  0  0  0  0  0  0  0  0  0  0
    5.0348   -5.0063    0.0000 C   0  0  0  0  0  0  0  0  0  0  0  0
    4.4334   -3.7175    0.0000 C   0  0  0  0  0  0  0  0  0  0  0  0
    4.9375   -8.1852    0.0000 C   0  0  0  0  0  0  0  0  0  0  0  0
    5.1094   -4.1928    0.0000 C   0  0  0  0  0  0  0  0  0  0  0  0
    5.6421   -6.5356    0.0000 O   0  0  0  0  0  0  0  0  0  0  0  0
    7.4120   -8.1509    0.0000 C   0  0  0  0  0  0  0  0  0  0  0  0
    3.6831   -4.0611    0.0000 O   0  0  0  0  0  0  0  0  0  0  0  0
    6.9938   -7.4463    0.0000 C   0  0  0  0  0  0  0  0  0  0  0  0
    7.0168   -8.8726    0.0000 C   0  0  0  0  0  0  0  0  0  0  0  0
    5.7623   -8.1795    0.0000 C   0  0  0  0  0  0  0  0  0  0  0  0
    4.5021   -2.8926    0.0000 O   0  0  0  0  0  0  0  0  0  0  0  0
    3.1446   -8.0248    0.0000 C   0  0  0  0  0  0  0  0  0  0  0  0
    6.1862   -8.8840    0.0000 C   0  0  0  0  0  0  0  0  0  0  0  0
    6.1576   -7.4578    0.0000 C   0  0  0  0  0  0  0  0  0  0  0  0
    9.4568   -7.3948    0.0000 C   0  0  0  0  0  0  0  0  0  0  0  0
    8.6606   -8.8382    0.0000 C   0  0  0  0  0  0  0  0  0  0  0  0
    5.7108   -5.4874    0.0000 C   0  0  0  0  0  0  0  0  0  0  0  0
    5.8483   -3.8378    0.0000 C   0  0  0  0  0  0  0  0  0  0  0  0
    3.8206   -2.4229    0.0000 C   0  0  0  0  0  0  0  0  0  0  0  0
    2.3370   -7.8588    0.0000 C   0  0  0  0  0  0  0  0  0  0  0  0
    1.7929   -8.4774    0.0000 C   0  0  0  0  0  0  0  0  0  0  0  0
    9.4854   -8.8210    0.0000 C   0  0  0  0  0  0  0  0  0  0  0  0
    9.8864   -8.0993    0.0000 C   0  0  0  0  0  0  0  0  0  0  0  0
    6.4611   -5.1379    0.0000 C   0  0  0  0  0  0  0  0  0  0  0  0
    6.5356   -4.3189    0.0000 C   0  0  0  0  0  0  0  0  0  0  0  0
    0.9852   -8.3227    0.0000 C   0  0  0  0  0  0  0  0  0  0  0  0
  2  1  1  0
  3  2  1  0
  4  5  2  0
  5  1  1  0
  6 11  1  0
  7  6  1  0
  8  7  1  0
  9  6  2  0
 10  9  1  0
 11 13  1  0
 12  3  1  0
 13 19  1  0
 14 12  1  0
 15 17  1  0
 16  1  1  0
 17 14  2  0
 18  2  2  0
 19 21  2  0
 20 15  2  0
 21 27  1  0
 22 26  2  0
 23 16  1  0
 24 15  1  0
 25  5  1  0
 26 23  1  0
 27 23  2  0
 28 11  2  0
 29 13  2  0
 30 14  1  0
 31 17  1  0
 32 24  1  0
 33 25  1  0
 34 33  1  0
 35 29  1  0
 36 35  2  0
 37 30  2  0
 38 37  1  0
 39 34  1  0
  4  3  1  0
 19 22  1  0
 38 31  2  0
 28 36  1  0
  8 10  2  0
M  END
>  <From>  (1) 
www.bindingDB.org

>  <BindingDB Reactant_set_id>  (1) 
50060545

>  <Ligand InChI>  (1) 
InChI=1S/C29H29N7O3/c1-3-4-13-26-32-36(19-22-9-5-6-11-24(22)28(37)39-2)29(38)35(26)18-20-14-16-21(17-15-20)23-10-7-8-12-25(23)27-30-33-34-31-27/h5-12,14-17H,3-4,13,18-19H2,1-2H3,(H,30,31,33,34)

>  <Ligand InChI Key>  (1) 
NVLJXTCTDPLEBQ-UHFFFAOYSA-N

>  <BindingDB MonomerID>  (1) 
50044474

>  <BindingDB Ligand Name>  (1) 
2-{3-Butyl-5-oxo-4-[2'-(2H-tetrazol-5-yl)-biphenyl-4-ylmethyl]-4,5-dihydro-[1,2,4]triazol-1-ylmethyl}-benzoic acid methyl ester::CHEMBL312921

>  <Target Name>  (1) 
Type-1 angiotensin II receptor

>  <Target Source Organism According to Curator or DataSource>  (1) 
Oryctolagus cuniculus

>  <Ki (nM)>  (1) 


>  <IC50 (nM)>  (1) 
 11

>  <Kd (nM)>  (1) 


>  <EC50 (nM)>  (1) 


>  <kon (M-1-s-1)>  (1) 


>  <koff (s-1)>  (1) 


>  <pH>  (1) 


>  <Temp C>  (1) 


>  <Curation/DataSource>  (1) 
ChEMBL

>  <Article DOI>  (1) 
10.1021/jm00069a015

>  <BindingDB Entry DOI>  (1) 
10.7270/Q2KP817C

>  <PMID>  (1) 
8355255

>  <PubChem AID>  (1) 


>  <Patent Number>  (1) 


>  <Authors>  (1) 
Chang, LL; Ashton, WT; Flanagan, KL; Strelitz, RA; MacCoss, M; Greenlee, WJ; Chang, RS; Lotti, VJ; Faust, KA; Chen, TB

>  <Institution>  (1) 
Merck Research Laboratories

>  <Link to Ligand in BindingDB>  (1) 
http://www.bindingdb.org/bind/chemsearch/marvin/MolStructure.jsp?monomerid=50044474

>  <Link to Ligand-Target Pair in BindingDB>  (1) 
http://www.bindingdb.org/jsp/dbsearch/PrimarySearch_ki.jsp?energyterm=kJ/mole&tag=r21&monomerid=50044474&enzyme=Type-1+angiotensin+II+receptor&column=ki&startPg=0&Increment=50&submit=Search

>  <Ligand HET ID in PDB>  (1) 


>  <PDB ID(s) for Ligand-Target Complex>  (1) 


>  <PubChem CID of Ligand>  (1) 
19939367

>  <PubChem SID of Ligand>  (1) 
103975712

>  <ChEBI ID of Ligand>  (1) 


>  <ChEMBL ID of Ligand>  (1) 
CHEMBL312921

>  <DrugBank ID of Ligand>  (1) 


>  <IUPHAR_GRAC ID of Ligand>  (1) 


>  <KEGG ID of Ligand>  (1) 


>  <ZINC ID of Ligand>  (1) 
ZINC01552278

>  <Number of Protein Chains in Target (bigger than 1 implies a multichain complex)>  (1) 
1

>  <BindingDB Target Chain Sequence>  (1) 
MMLNSSTEDGIKRIQDDCPKAGRHNYIFVMIPTLYSIIFVVGIFGNSLAVIVIYFYMKLKTVASVFLLNLALADLCFLLTLPLWAVYTAMEYRWPFGNYLCKIASASVSFNLYASVFLLTCLSIDRYLAIVHPMKSRLRRTMLVAKVTCIIIWLLAGLASLPAIIHRNVFFIENTNITVCAFHYESQNSTLPIGLGLTKNILGFLFPFLIILTSYTLIWKALKKAYEIQKNKPRNDDIFKIIMAIVLFFFFSWVPHQIFTFLDVLIQLGVIHDCRIADIVDTAMPITICIAYFNNCLNPLFYGFLGKKFKKYFLQLLKYIPPKAKSHSNLSTKMSTLSYRPSDNVSSSSKKPVPCFEVE

>  <PDB ID(s) of Target Chain>  (1) 
6DO1,6OS0,6OS1,6OS2

>  <UniProt (SwissProt) Recommended Name of Target Chain>  (1) 
Type-1 angiotensin II receptor

>  <UniProt (SwissProt) Entry Name of Target Chain>  (1) 
AGTR1_RABIT

>  <UniProt (SwissProt) Primary ID of Target Chain>  (1) 
P34976

>  <UniProt (SwissProt) Secondary ID(s) of Target Chain>  (1) 


>  <UniProt (SwissProt) Alternative ID(s) of Target Chain>  (1) 


>  <UniProt (TrEMBL) Submitted Name of Target Chain>  (1) 


>  <UniProt (TrEMBL) Entry Name of Target Chain>  (1) 


>  <UniProt (TrEMBL) Primary ID of Target Chain>  (1) 


>  <UniProt (TrEMBL) Secondary ID(s) of Target Chain>  (1) 


>  <UniProt (TrEMBL) Alternative ID(s) of Target Chain>  (1) 


$$$$
