
     RDKit          2D

 37 41  0  0  0  0  0  0  0  0999 V2000
    3.7478   -3.2060    0.0000 N   0  0  0  0  0  0  0  0  0  0  0  0
    3.4911   -2.4130    0.0000 C   0  0  0  0  0  0  0  0  0  0  0  0
    2.4016   -3.2060    0.0000 N   0  0  0  0  0  0  0  0  0  0  0  0
    3.0804   -3.6851    0.0000 C   0  0  0  0  0  0  0  0  0  0  0  0
    2.6583   -2.4187    0.0000 C   0  0  0  0  0  0  0  0  0  0  0  0
    8.0433   -4.4895    0.0000 C   0  0  0  0  0  0  0  0  0  0  0  0
    7.6326   -3.7821    0.0000 C   0  0  0  0  0  0  0  0  0  0  0  0
    7.6326   -5.2196    0.0000 C   0  0  0  0  0  0  0  0  0  0  0  0
    4.3297   -3.7821    0.0000 C   0  0  0  0  0  0  0  0  0  0  0  0
    6.7998   -3.7821    0.0000 C   0  0  0  0  0  0  0  0  0  0  0  0
    3.9761   -1.7456    0.0000 O   0  0  0  0  0  0  0  0  0  0  0  0
    3.0006   -1.6658    0.0000 C   0  0  0  0  0  0  0  0  0  0  0  0
    1.8483   -2.5043    0.0000 C   0  0  0  0  0  0  0  0  0  0  0  0
    8.0433   -5.9270    0.0000 O   0  0  0  0  0  0  0  0  0  0  0  0
    1.7000   -1.0839    0.0000 C   0  0  0  0  0  0  0  0  0  0  0  0
    2.5214   -0.9983    0.0000 C   0  0  0  0  0  0  0  0  0  0  0  0
    1.3691   -1.8369    0.0000 C   0  0  0  0  0  0  0  0  0  0  0  0
    6.3891   -4.5008    0.0000 C   0  0  0  0  0  0  0  0  0  0  0  0
    6.3833   -3.0633    0.0000 C   0  0  0  0  0  0  0  0  0  0  0  0
    1.2208   -0.4165    0.0000 C   0  0  0  0  0  0  0  0  0  0  0  0
    5.1569   -3.7821    0.0000 C   0  0  0  0  0  0  0  0  0  0  0  0
    6.7998   -5.2196    0.0000 O   0  0  0  0  0  0  0  0  0  0  0  0
    3.0691   -4.5179    0.0000 C   0  0  0  0  0  0  0  0  0  0  0  0
    5.5619   -4.5008    0.0000 C   0  0  0  0  0  0  0  0  0  0  0  0
    5.5619   -3.0633    0.0000 C   0  0  0  0  0  0  0  0  0  0  0  0
    8.8705   -4.4895    0.0000 C   0  0  0  0  0  0  0  0  0  0  0  0
    8.0320   -3.0633    0.0000 C   0  0  0  0  0  0  0  0  0  0  0  0
    1.5631    0.3252    0.0000 C   0  0  0  0  0  0  0  0  0  0  0  0
    0.4165   -0.5020    0.0000 C   0  0  0  0  0  0  0  0  0  0  0  0
    2.3617   -4.9287    0.0000 C   0  0  0  0  0  0  0  0  0  0  0  0
    2.3617   -5.7559    0.0000 C   0  0  0  0  0  0  0  0  0  0  0  0
    8.8648   -3.0519    0.0000 C   0  0  0  0  0  0  0  0  0  0  0  0
    9.2812   -3.7707    0.0000 C   0  0  0  0  0  0  0  0  0  0  0  0
    1.6486   -6.1666    0.0000 C   0  0  0  0  0  0  0  0  0  0  0  0
   -0.0627    0.1654    0.0000 C   0  0  0  0  0  0  0  0  0  0  0  0
    1.0839    0.9926    0.0000 C   0  0  0  0  0  0  0  0  0  0  0  0
    0.2738    0.9184    0.0000 C   0  0  0  0  0  0  0  0  0  0  0  0
  2  1  1  0
  3  4  2  0
  4  1  1  0
  5  2  1  0
  6  7  2  0
  7 10  1  0
  8  6  1  0
  9  1  1  0
 10 19  2  0
 11  2  2  0
 12  5  1  0
 13  5  1  0
 14  8  2  0
 15 17  1  0
 16 12  1  0
 17 13  1  0
 18 24  2  0
 19 25  1  0
 20 15  1  0
 21  9  1  0
 22  8  1  0
 23  4  1  0
 24 21  1  0
 25 21  2  0
 26  6  1  0
 27  7  1  0
 28 20  2  0
 29 20  1  0
 30 23  1  0
 31 30  1  0
 32 27  2  0
 33 32  1  0
 34 31  1  0
 35 29  2  0
 36 28  1  0
 37 35  1  0
  3  5  1  0
 18 10  1  0
 16 15  1  0
 26 33  2  0
 36 37  2  0
M  END
>  <From>  (1) 
www.bindingDB.org

>  <BindingDB Reactant_set_id>  (1) 
50067240

>  <Ligand InChI>  (1) 
InChI=1S/C32H34N2O3/c1-2-3-13-29-33-32(20-18-25(19-21-32)24-9-5-4-6-10-24)31(37)34(29)22-23-14-16-26(17-15-23)27-11-7-8-12-28(27)30(35)36/h4-12,14-17,25H,2-3,13,18-22H2,1H3,(H,35,36)

>  <Ligand InChI Key>  (1) 
RDEUFLVHGARXDY-UHFFFAOYSA-N

>  <BindingDB MonomerID>  (1) 
50042245

>  <BindingDB Ligand Name>  (1) 
4'-(2-Butyl-4-oxo-8-phenyl-1,3-diaza-spiro[4.5]dec-1-en-3-ylmethyl)-biphenyl-2-carboxylic acid::CHEMBL113039

>  <Target Name>  (1) 
Type-1 angiotensin II receptor B

>  <Target Source Organism According to Curator or DataSource>  (1) 
Rattus

>  <Ki (nM)>  (1) 


>  <IC50 (nM)>  (1) 
 260

>  <Kd (nM)>  (1) 


>  <EC50 (nM)>  (1) 


>  <kon (M-1-s-1)>  (1) 


>  <koff (s-1)>  (1) 


>  <pH>  (1) 


>  <Temp C>  (1) 


>  <Curation/DataSource>  (1) 
ChEMBL

>  <Article DOI>  (1) 
10.1021/jm00074a018

>  <BindingDB Entry DOI>  (1) 
10.7270/Q22Z14M0

>  <PMID>  (1) 
8230127

>  <PubChem AID>  (1) 


>  <Patent Number>  (1) 


>  <Authors>  (1) 
Bernhart, CA; Perreaut, PM; Ferrari, BP; Muneaux, YA; Assens, JL; Clement, J; Haudricourt, F; Muneaux, CF; Taillades, JE; Vignal, MA

>  <Institution>  (1) 
Sanofi Recherche

>  <Link to Ligand in BindingDB>  (1) 
http://www.bindingdb.org/bind/chemsearch/marvin/MolStructure.jsp?monomerid=50042245

>  <Link to Ligand-Target Pair in BindingDB>  (1) 
http://www.bindingdb.org/jsp/dbsearch/PrimarySearch_ki.jsp?energyterm=kJ/mole&tag=r21&monomerid=50042245&enzyme=Type-1+angiotensin+II+receptor+B&column=ki&startPg=0&Increment=50&submit=Search

>  <Ligand HET ID in PDB>  (1) 


>  <PDB ID(s) for Ligand-Target Complex>  (1) 


>  <PubChem CID of Ligand>  (1) 
44341453

>  <PubChem SID of Ligand>  (1) 
103973853

>  <ChEBI ID of Ligand>  (1) 


>  <ChEMBL ID of Ligand>  (1) 
CHEMBL113039

>  <DrugBank ID of Ligand>  (1) 


>  <IUPHAR_GRAC ID of Ligand>  (1) 


>  <KEGG ID of Ligand>  (1) 


>  <ZINC ID of Ligand>  (1) 
ZINC13833575

>  <Number of Protein Chains in Target (bigger than 1 implies a multichain complex)>  (1) 
1

>  <BindingDB Target Chain Sequence>  (1) 
MTLNSSTEDGIKRIQDDCPKAGRHNYIFVMIPTLYSIIFVVGIFGNSLVVIVIYFYMKLKTVASVFLLNLALADLCFLLTLPLWAVYTAMEYRWPFGNHLCKIASASVSFNLYASVFLLTCLSIDRYLAIVHPMKSRLRRTMLVAKVTCIIIWLMAGLASLPAVIYRNVYFIENTNITVCAFHYESQNSTLPIGLGLTKNILGFVFPFLIILTSYTLIWKALKKAYKIQKNTPRNDDIFRIIMAIVLFFFFSWVPHQIFTFLDVLIQLGIIRDCEIADIVDTAMPITICIAYFNNCLNPLFYGFLGKKFKKYFLQLLKYIPPTAKSHAGLSTKMSTLSYRPSDNMSSSAKKSASFFEVE

>  <PDB ID(s) of Target Chain>  (1) 


>  <UniProt (SwissProt) Recommended Name of Target Chain>  (1) 
Type-1 angiotensin II receptor B

>  <UniProt (SwissProt) Entry Name of Target Chain>  (1) 
AGTRB_RAT

>  <UniProt (SwissProt) Primary ID of Target Chain>  (1) 
P29089

>  <UniProt (SwissProt) Secondary ID(s) of Target Chain>  (1) 


>  <UniProt (SwissProt) Alternative ID(s) of Target Chain>  (1) 


>  <UniProt (TrEMBL) Submitted Name of Target Chain>  (1) 


>  <UniProt (TrEMBL) Entry Name of Target Chain>  (1) 


>  <UniProt (TrEMBL) Primary ID of Target Chain>  (1) 


>  <UniProt (TrEMBL) Secondary ID(s) of Target Chain>  (1) 


>  <UniProt (TrEMBL) Alternative ID(s) of Target Chain>  (1) 


$$$$
