
     RDKit          2D

 41 46  0  0  0  0  0  0  0  0999 V2000
    4.0157   -4.3657    0.0000 N   0  0  0  0  0  0  0  0  0  0  0  0
    4.6531   -3.8533    0.0000 C   0  0  0  0  0  0  0  0  0  0  0  0
    4.3657   -3.0785    0.0000 C   0  0  0  0  0  0  0  0  0  0  0  0
    3.5409   -3.1243    0.0000 N   0  0  0  0  0  0  0  0  0  0  0  0
    3.3242   -3.9158    0.0000 C   0  0  0  0  0  0  0  0  0  0  0  0
    7.6274   -5.4279    0.0000 C   0  0  0  0  0  0  0  0  0  0  0  0
    7.1483   -4.1782    0.0000 N   0  0  0  0  0  0  0  0  0  0  0  0
    6.9276   -4.9780    0.0000 N   0  0  0  0  0  0  0  0  0  0  0  0
    7.9648   -4.1407    0.0000 N   0  0  0  0  0  0  0  0  0  0  0  0
    3.3409    0.5582    0.0000 C   0  0  0  0  0  0  0  0  0  0  0  0
    8.2647   -4.9030    0.0000 N   0  0  0  0  0  0  0  0  0  0  0  0
    3.7116   -0.1792    0.0000 N   0  0  0  0  0  0  0  0  0  0  0  0
    5.4529   -4.0657    0.0000 C   0  0  0  0  0  0  0  0  0  0  0  0
    7.6732   -6.2485    0.0000 C   0  0  0  0  0  0  0  0  0  0  0  0
    3.7908    1.2455    0.0000 C   0  0  0  0  0  0  0  0  0  0  0  0
    6.9775   -6.6984    0.0000 C   0  0  0  0  0  0  0  0  0  0  0  0
    4.8156   -2.3911    0.0000 C   0  0  0  0  0  0  0  0  0  0  0  0
    4.4406   -1.6538    0.0000 N   0  0  0  0  0  0  0  0  0  0  0  0
    4.5364    1.6204    0.0000 C   0  0  0  0  0  0  0  0  0  0  0  0
    3.8408    2.0620    0.0000 C   0  0  0  0  0  0  0  0  0  0  0  0
    4.0532   -5.1905    0.0000 C   0  0  0  0  0  0  0  0  0  0  0  0
    6.2527   -6.3235    0.0000 C   0  0  0  0  0  0  0  0  0  0  0  0
    2.5161    0.6082    0.0000 O   0  0  0  0  0  0  0  0  0  0  0  0
    3.2534   -0.8748    0.0000 C   0  0  0  0  0  0  0  0  0  0  0  0
    4.5364   -0.2291    0.0000 C   0  0  0  0  0  0  0  0  0  0  0  0
    5.4487   -4.6156    0.0000 O   0  0  0  0  0  0  0  0  0  0  0  0
    6.2110   -5.4904    0.0000 C   0  0  0  0  0  0  0  0  0  0  0  0
    5.5529   -6.7651    0.0000 C   0  0  0  0  0  0  0  0  0  0  0  0
    3.6241   -1.6163    0.0000 C   0  0  0  0  0  0  0  0  0  0  0  0
    4.9030   -0.9665    0.0000 C   0  0  0  0  0  0  0  0  0  0  0  0
    4.7864   -5.5654    0.0000 C   0  0  0  0  0  0  0  0  0  0  0  0
    6.0403   -3.4909    0.0000 O   0  0  0  0  0  0  0  0  0  0  0  0
    2.5536   -4.2115    0.0000 C   0  0  0  0  0  0  0  0  0  0  0  0
    5.4779   -5.1238    0.0000 C   0  0  0  0  0  0  0  0  0  0  0  0
    4.8239   -6.3902    0.0000 C   0  0  0  0  0  0  0  0  0  0  0  0
    8.4022   -6.6234    0.0000 C   0  0  0  0  0  0  0  0  0  0  0  0
    7.0233   -7.5232    0.0000 C   0  0  0  0  0  0  0  0  0  0  0  0
    1.9162   -3.6908    0.0000 C   0  0  0  0  0  0  0  0  0  0  0  0
    8.4480   -7.4524    0.0000 C   0  0  0  0  0  0  0  0  0  0  0  0
    7.7524   -7.8981    0.0000 C   0  0  0  0  0  0  0  0  0  0  0  0
    1.1414   -3.9783    0.0000 C   0  0  0  0  0  0  0  0  0  0  0  0
  2  1  1  0
  3  2  2  0
  4  5  2  0
  5  1  1  0
  6 14  1  0
  7  8  1  0
  8  6  1  0
  9 11  1  0
 10 12  1  0
 11  6  2  0
 12 25  1  0
 13  2  1  0
 14 16  1  0
 15 10  1  0
 16 22  1  0
 17  3  1  0
 18 17  1  0
 19 15  1  0
 20 15  1  0
 21  1  1  0
 22 28  2  0
 23 10  2  0
 24 29  1  0
 25 30  1  0
 26 13  2  0
 27 34  2  0
 28 35  1  0
 29 18  1  0
 30 18  1  0
 31 21  1  0
 32 13  1  0
 33  5  1  0
 34 31  1  0
 35 31  2  0
 36 14  2  0
 37 16  2  0
 38 33  1  0
 39 40  2  0
 40 37  1  0
 41 38  1  0
  4  3  1  0
 22 27  1  0
 12 24  1  0
 39 36  1  0
  7  9  2  0
 20 19  1  0
M  END
>  <From>  (1) 
www.bindingDB.org

>  <BindingDB Reactant_set_id>  (1) 
50469064

>  <Ligand InChI>  (1) 
InChI=1S/C30H34N8O3/c1-2-5-26-31-25(19-36-14-16-37(17-15-36)29(39)22-12-13-22)27(30(40)41)38(26)18-20-8-10-21(11-9-20)23-6-3-4-7-24(23)28-32-34-35-33-28/h3-4,6-11,22H,2,5,12-19H2,1H3,(H,40,41)(H,32,33,34,35)

>  <Ligand InChI Key>  (1) 
UADQBWZVELTJTR-UHFFFAOYSA-N

>  <BindingDB MonomerID>  (1) 
50283172

>  <BindingDB Ligand Name>  (1) 
5-(4-Cyclopropanecarbonyl-piperazin-1-ylmethyl)-2-propyl-3-[2'-(1H-tetrazol-5-yl)-biphenyl-4-ylmethyl]-3H-imidazole-4-carboxylic acid::CHEMBL309820

>  <Target Name>  (1) 
Type-1 angiotensin II receptor

>  <Target Source Organism According to Curator or DataSource>  (1) 
Homo sapiens

>  <Ki (nM)>  (1) 


>  <IC50 (nM)>  (1) 
 10

>  <Kd (nM)>  (1) 


>  <EC50 (nM)>  (1) 


>  <kon (M-1-s-1)>  (1) 


>  <koff (s-1)>  (1) 


>  <pH>  (1) 


>  <Temp C>  (1) 


>  <Curation/DataSource>  (1) 
ChEMBL

>  <Article DOI>  (1) 
10.1016/S0960-894X(00)80076-1

>  <BindingDB Entry DOI>  (1) 
10.7270/Q2JQ110M

>  <PMID>  (1) 


>  <PubChem AID>  (1) 


>  <Patent Number>  (1) 


>  <Authors>  (1) 
Olson, RE; Liu, J; Lalka, GK; VanAtten, MK; Wexler, RR; Chiu, AT; Nguyen, TT; McCall, DE; Wong, PC; Timmermans, PB

>  <Institution>  (1) 
TBA

>  <Link to Ligand in BindingDB>  (1) 
http://www.bindingdb.org/bind/chemsearch/marvin/MolStructure.jsp?monomerid=50283172

>  <Link to Ligand-Target Pair in BindingDB>  (1) 
http://www.bindingdb.org/jsp/dbsearch/PrimarySearch_ki.jsp?energyterm=kJ/mole&tag=r21&monomerid=50283172&enzyme=Type-1+angiotensin+II+receptor&column=ki&startPg=0&Increment=50&submit=Search

>  <Ligand HET ID in PDB>  (1) 


>  <PDB ID(s) for Ligand-Target Complex>  (1) 


>  <PubChem CID of Ligand>  (1) 
44311688

>  <PubChem SID of Ligand>  (1) 
104124846

>  <ChEBI ID of Ligand>  (1) 


>  <ChEMBL ID of Ligand>  (1) 
CHEMBL309820

>  <DrugBank ID of Ligand>  (1) 


>  <IUPHAR_GRAC ID of Ligand>  (1) 


>  <KEGG ID of Ligand>  (1) 


>  <ZINC ID of Ligand>  (1) 
ZINC26379734

>  <Number of Protein Chains in Target (bigger than 1 implies a multichain complex)>  (1) 
1

>  <BindingDB Target Chain Sequence>  (1) 
MILNSSTEDGIKRIQDDCPKAGRHNYIFVMIPTLYSIIFVVGIFGNSLVVIVIYFYMKLKTVASVFLLNLALADLCFLLTLPLWAVYTAMEYRWPFGNYLCKIASASVSFNLYASVFLLTCLSIDRYLAIVHPMKSRLRRTMLVAKVTCIIIWLLAGLASLPAIIHRNVFFIENTNITVCAFHYESQNSTLPIGLGLTKNILGFLFPFLIILTSYTLIWKALKKAYEIQKNKPRNDDIFKIIMAIVLFFFFSWIPHQIFTFLDVLIQLGIIRDCRIADIVDTAMPITICIAYFNNCLNPLFYGFLGKKFKRYFLQLLKYIPPKAKSHSNLSTKMSTLSYRPSDNVSSSTKKPAPCFEVE

>  <PDB ID(s) of Target Chain>  (1) 
6DO1,6OS0,6OS1,6OS2

>  <UniProt (SwissProt) Recommended Name of Target Chain>  (1) 
Type-1 angiotensin II receptor

>  <UniProt (SwissProt) Entry Name of Target Chain>  (1) 
AGTR1_HUMAN

>  <UniProt (SwissProt) Primary ID of Target Chain>  (1) 
P30556

>  <UniProt (SwissProt) Secondary ID(s) of Target Chain>  (1) 
Q13725 Q8TBK4

>  <UniProt (SwissProt) Alternative ID(s) of Target Chain>  (1) 


>  <UniProt (TrEMBL) Submitted Name of Target Chain>  (1) 


>  <UniProt (TrEMBL) Entry Name of Target Chain>  (1) 


>  <UniProt (TrEMBL) Primary ID of Target Chain>  (1) 


>  <UniProt (TrEMBL) Secondary ID(s) of Target Chain>  (1) 


>  <UniProt (TrEMBL) Alternative ID(s) of Target Chain>  (1) 


$$$$
