
     RDKit          2D

 47 50  0  0  0  0  0  0  0  0999 V2000
    9.4042   -3.5375    0.0000 S   0  0  0  0  0  0  0  0  0  0  0  0
    5.1292   -3.5292    0.0000 N   0  0  0  0  0  0  0  0  0  0  0  0
    4.4042   -3.1042    0.0000 C   0  0  0  0  0  0  0  0  0  0  0  0
    3.6917   -3.5292    0.0000 C   0  0  0  0  0  0  0  0  0  0  0  0
    5.1292   -4.3625    0.0000 C   0  0  0  0  0  0  0  0  0  0  0  0
    4.4042   -4.7750    0.0000 N   0  0  0  0  0  0  0  0  0  0  0  0
    9.4000   -2.7125    0.0000 N   0  0  0  0  0  0  0  0  0  0  0  0
    3.6875   -4.3625    0.0000 C   0  0  0  0  0  0  0  0  0  0  0  0
    9.4042   -4.3625    0.0000 C   0  0  0  0  0  0  0  0  0  0  0  0
    0.8292   -3.5292    0.0000 C   0  0  0  0  0  0  0  0  0  0  0  0
   10.1167   -2.3000    0.0000 C   0  0  0  0  0  0  0  0  0  0  0  0
    8.6917   -4.7667    0.0000 C   0  0  0  0  0  0  0  0  0  0  0  0
    8.5792   -3.5292    0.0000 O   0  0  0  0  0  0  0  0  0  0  0  0
   10.2292   -3.5292    0.0000 O   0  0  0  0  0  0  0  0  0  0  0  0
    5.8417   -3.1167    0.0000 C   0  0  0  0  0  0  0  0  0  0  0  0
    2.9750   -3.1167    0.0000 C   0  0  0  0  0  0  0  0  0  0  0  0
    1.5500   -3.1167    0.0000 N   0  0  0  0  0  0  0  0  0  0  0  0
    4.4042   -2.2792    0.0000 O   0  0  0  0  0  0  0  0  0  0  0  0
    0.1167   -3.1167    0.0000 N   0  0  0  0  0  0  0  0  0  0  0  0
    7.9792   -4.3625    0.0000 C   0  0  0  0  0  0  0  0  0  0  0  0
    2.2542   -3.5292    0.0000 C   0  0  0  0  0  0  0  0  0  0  0  0
    0.8292   -4.3542    0.0000 O   0  0  0  0  0  0  0  0  0  0  0  0
   10.8292   -2.7042    0.0000 O   0  0  0  0  0  0  0  0  0  0  0  0
    2.9750   -4.7667    0.0000 C   0  0  0  0  0  0  0  0  0  0  0  0
    7.2625   -4.7667    0.0000 C   0  0  0  0  0  0  0  0  0  0  0  0
    7.9792   -3.5292    0.0000 C   0  0  0  0  0  0  0  0  0  0  0  0
    6.5542   -3.5292    0.0000 C   0  0  0  0  0  0  0  0  0  0  0  0
   10.1125   -1.4750    0.0000 O   0  0  0  0  0  0  0  0  0  0  0  0
    2.2542   -4.3542    0.0000 C   0  0  0  0  0  0  0  0  0  0  0  0
    5.8417   -4.7792    0.0000 C   0  0  0  0  0  0  0  0  0  0  0  0
    6.5500   -4.3542    0.0000 C   0  0  0  0  0  0  0  0  0  0  0  0
    7.2667   -3.1167    0.0000 C   0  0  0  0  0  0  0  0  0  0  0  0
   10.1167   -4.7667    0.0000 C   0  0  0  0  0  0  0  0  0  0  0  0
    8.6917   -5.6000    0.0000 C   0  0  0  0  0  0  0  0  0  0  0  0
   -0.5875   -3.5292    0.0000 C   0  0  0  0  0  0  0  0  0  0  0  0
   10.8292   -1.0542    0.0000 C   0  0  0  0  0  0  0  0  0  0  0  0
    5.8417   -5.6042    0.0000 C   0  0  0  0  0  0  0  0  0  0  0  0
   -0.5875   -4.3542    0.0000 C   0  0  0  0  0  0  0  0  0  0  0  0
   -1.3083   -3.1167    0.0000 C   0  0  0  0  0  0  0  0  0  0  0  0
   10.8292   -0.2292    0.0000 C   0  0  0  0  0  0  0  0  0  0  0  0
    6.5542   -6.0167    0.0000 C   0  0  0  0  0  0  0  0  0  0  0  0
   11.5417    1.0083    0.0000 C   0  0  0  0  0  0  0  0  0  0  0  0
   11.5417    0.1833    0.0000 C   0  0  0  0  0  0  0  0  0  0  0  0
   10.1167   -5.6000    0.0000 C   0  0  0  0  0  0  0  0  0  0  0  0
    9.4042   -6.0125    0.0000 C   0  0  0  0  0  0  0  0  0  0  0  0
    6.5500   -6.8417    0.0000 C   0  0  0  0  0  0  0  0  0  0  0  0
   12.2542    1.4208    0.0000 C   0  0  0  0  0  0  0  0  0  0  0  0
  2 15  1  0
  3  2  1  0
  4  3  1  0
  5  2  1  0
  6  5  2  0
  7  1  1  0
  8  6  1  0
  9  1  1  0
 10 17  1  0
 11  7  1  0
 12  9  2  0
 13  1  2  0
 14  1  2  0
 15 27  1  0
 16  4  2  0
 17 21  1  0
 18  3  2  0
 19 10  1  0
 20 12  1  0
 21 16  1  0
 22 10  2  0
 23 11  2  0
 24  8  2  0
 25 20  2  0
 26 20  1  0
 27 32  1  0
 28 11  1  0
 29 24  1  0
 30  5  1  0
 31 25  1  0
 32 26  2  0
 33  9  1  0
 34 12  1  0
 35 19  1  0
 36 28  1  0
 37 30  1  0
 38 35  1  0
 39 35  1  0
 40 36  1  0
 41 37  1  0
 42 43  1  0
 43 40  1  0
 44 33  2  0
 45 44  1  0
 46 41  1  0
 47 42  1  0
 34 45  2  0
 27 31  2  0
  4  8  1  0
 21 29  2  0
M  END
>  <From>  (1) 
www.bindingDB.org

>  <BindingDB Reactant_set_id>  (1) 
50002793

>  <Ligand InChI>  (1) 
InChI=1S/C35H43N5O6S/c1-5-7-11-21-46-35(43)39-47(44,45)31-13-10-9-12-28(31)26-17-15-25(16-18-26)23-40-32(14-8-6-2)38-30-20-19-27(22-29(30)33(40)41)37-34(42)36-24(3)4/h9-10,12-13,15-20,22,24H,5-8,11,14,21,23H2,1-4H3,(H,39,43)(H2,36,37,42)

>  <Ligand InChI Key>  (1) 
PQBGYMDWFDMSQB-UHFFFAOYSA-N

>  <BindingDB MonomerID>  (1) 
50282466

>  <BindingDB Ligand Name>  (1) 
CHEMBL354779::Quinazolinone Analog

>  <Target Name>  (1) 
Type-1 angiotensin II receptor

>  <Target Source Organism According to Curator or DataSource>  (1) 
Oryctolagus cuniculus

>  <Ki (nM)>  (1) 


>  <IC50 (nM)>  (1) 
 0.170000

>  <Kd (nM)>  (1) 


>  <EC50 (nM)>  (1) 


>  <kon (M-1-s-1)>  (1) 


>  <koff (s-1)>  (1) 


>  <pH>  (1) 


>  <Temp C>  (1) 


>  <Curation/DataSource>  (1) 
ChEMBL

>  <Article DOI>  (1) 
10.1016/S0960-894X(01)81126-4

>  <BindingDB Entry DOI>  (1) 
10.7270/Q2D79BBS

>  <PMID>  (1) 


>  <PubChem AID>  (1) 


>  <Patent Number>  (1) 


>  <Authors>  (1) 
Glinka, TW; de Laszlo, SE; Siegl, PK; Chang, RS; Kivlighn, SD; Schorn, TS; Faust, KA; Chen, TB; Zingaro, GJ; Lotti, VJ; Greenlee, WJ

>  <Institution>  (1) 
TBA

>  <Link to Ligand in BindingDB>  (1) 
http://www.bindingdb.org/bind/chemsearch/marvin/MolStructure.jsp?monomerid=50282466

>  <Link to Ligand-Target Pair in BindingDB>  (1) 
http://www.bindingdb.org/jsp/dbsearch/PrimarySearch_ki.jsp?energyterm=kJ/mole&tag=r21&monomerid=50282466&enzyme=Type-1+angiotensin+II+receptor&column=ki&startPg=0&Increment=50&submit=Search

>  <Ligand HET ID in PDB>  (1) 


>  <PDB ID(s) for Ligand-Target Complex>  (1) 


>  <PubChem CID of Ligand>  (1) 
44381413

>  <PubChem SID of Ligand>  (1) 
104124140

>  <ChEBI ID of Ligand>  (1) 


>  <ChEMBL ID of Ligand>  (1) 
CHEMBL354779

>  <DrugBank ID of Ligand>  (1) 


>  <IUPHAR_GRAC ID of Ligand>  (1) 


>  <KEGG ID of Ligand>  (1) 


>  <ZINC ID of Ligand>  (1) 
ZINC27986489

>  <Number of Protein Chains in Target (bigger than 1 implies a multichain complex)>  (1) 
1

>  <BindingDB Target Chain Sequence>  (1) 
MMLNSSTEDGIKRIQDDCPKAGRHNYIFVMIPTLYSIIFVVGIFGNSLAVIVIYFYMKLKTVASVFLLNLALADLCFLLTLPLWAVYTAMEYRWPFGNYLCKIASASVSFNLYASVFLLTCLSIDRYLAIVHPMKSRLRRTMLVAKVTCIIIWLLAGLASLPAIIHRNVFFIENTNITVCAFHYESQNSTLPIGLGLTKNILGFLFPFLIILTSYTLIWKALKKAYEIQKNKPRNDDIFKIIMAIVLFFFFSWVPHQIFTFLDVLIQLGVIHDCRIADIVDTAMPITICIAYFNNCLNPLFYGFLGKKFKKYFLQLLKYIPPKAKSHSNLSTKMSTLSYRPSDNVSSSSKKPVPCFEVE

>  <PDB ID(s) of Target Chain>  (1) 
6DO1,6OS0,6OS1,6OS2

>  <UniProt (SwissProt) Recommended Name of Target Chain>  (1) 
Type-1 angiotensin II receptor

>  <UniProt (SwissProt) Entry Name of Target Chain>  (1) 
AGTR1_RABIT

>  <UniProt (SwissProt) Primary ID of Target Chain>  (1) 
P34976

>  <UniProt (SwissProt) Secondary ID(s) of Target Chain>  (1) 


>  <UniProt (SwissProt) Alternative ID(s) of Target Chain>  (1) 


>  <UniProt (TrEMBL) Submitted Name of Target Chain>  (1) 


>  <UniProt (TrEMBL) Entry Name of Target Chain>  (1) 


>  <UniProt (TrEMBL) Primary ID of Target Chain>  (1) 


>  <UniProt (TrEMBL) Secondary ID(s) of Target Chain>  (1) 


>  <UniProt (TrEMBL) Alternative ID(s) of Target Chain>  (1) 


$$$$
