
     RDKit          2D

 33 36  0  0  0  0  0  0  0  0999 V2000
    0.1602   -1.6532    0.0000 N   0  0  0  0  0  0  0  0  0  0  0  0
    0.2289   -0.3147    0.0000 N   0  0  0  0  0  0  0  0  0  0  0  0
   -0.6120   -1.3615    0.0000 C   0  0  0  0  0  0  0  0  0  0  0  0
    0.6750   -1.0011    0.0000 C   0  0  0  0  0  0  0  0  0  0  0  0
   -0.5663   -0.5378    0.0000 C   0  0  0  0  0  0  0  0  0  0  0  0
    3.7240   -3.7068    0.0000 C   0  0  0  0  0  0  0  0  0  0  0  0
   -1.2642   -0.0916    0.0000 C   0  0  0  0  0  0  0  0  0  0  0  0
    3.0090   -4.1244    0.0000 C   0  0  0  0  0  0  0  0  0  0  0  0
    3.7126   -2.8831    0.0000 C   0  0  0  0  0  0  0  0  0  0  0  0
   -1.3386   -1.7333    0.0000 C   0  0  0  0  0  0  0  0  0  0  0  0
   -2.0250   -1.2928    0.0000 C   0  0  0  0  0  0  0  0  0  0  0  0
    0.1602   -2.4770    0.0000 C   0  0  0  0  0  0  0  0  0  0  0  0
    2.2996   -3.7126    0.0000 C   0  0  0  0  0  0  0  0  0  0  0  0
   -1.9907   -0.4633    0.0000 C   0  0  0  0  0  0  0  0  0  0  0  0
    3.0032   -2.4770    0.0000 O   0  0  0  0  0  0  0  0  0  0  0  0
   -2.7572   -1.6704    0.0000 C   0  0  0  0  0  0  0  0  0  0  0  0
    1.5846   -4.1244    0.0000 C   0  0  0  0  0  0  0  0  0  0  0  0
    2.2996   -2.8831    0.0000 C   0  0  0  0  0  0  0  0  0  0  0  0
    0.8752   -2.8831    0.0000 C   0  0  0  0  0  0  0  0  0  0  0  0
   -3.4608   -1.2242    0.0000 N   0  0  0  0  0  0  0  0  0  0  0  0
    4.4333   -2.4712    0.0000 O   0  0  0  0  0  0  0  0  0  0  0  0
    1.4988   -1.0468    0.0000 C   0  0  0  0  0  0  0  0  0  0  0  0
    1.5846   -2.4712    0.0000 C   0  0  0  0  0  0  0  0  0  0  0  0
    0.8752   -3.7126    0.0000 C   0  0  0  0  0  0  0  0  0  0  0  0
    4.4333   -4.1073    0.0000 C   0  0  0  0  0  0  0  0  0  0  0  0
    3.0090   -4.9482    0.0000 C   0  0  0  0  0  0  0  0  0  0  0  0
   -1.2184    0.7322    0.0000 C   0  0  0  0  0  0  0  0  0  0  0  0
   -3.3063   -0.4176    0.0000 C   0  0  0  0  0  0  0  0  0  0  0  0
   -4.2330   -1.4988    0.0000 C   0  0  0  0  0  0  0  0  0  0  0  0
    1.9450   -0.3490    0.0000 C   0  0  0  0  0  0  0  0  0  0  0  0
    3.7297   -5.3543    0.0000 C   0  0  0  0  0  0  0  0  0  0  0  0
    4.4447   -4.9424    0.0000 C   0  0  0  0  0  0  0  0  0  0  0  0
    2.7687   -0.3947    0.0000 C   0  0  0  0  0  0  0  0  0  0  0  0
  2  4  2  0
  3  1  1  0
  4  1  1  0
  5  3  2  0
  6  8  2  0
  7  5  1  0
  8 13  1  0
  9  6  1  0
 10  3  1  0
 11 10  2  0
 12  1  1  0
 13 17  2  0
 14 11  1  0
 15  9  2  0
 16 11  1  0
 17 24  1  0
 18 23  2  0
 19 12  1  0
 20 16  1  0
 21  9  1  0
 22  4  1  0
 23 19  1  0
 24 19  2  0
 25  6  1  0
 26  8  1  0
 27  7  1  0
 28 20  1  0
 29 20  1  0
 30 22  1  0
 31 26  2  0
 32 31  1  0
 33 30  1  0
  5  2  1  0
 18 13  1  0
 14  7  2  0
 25 32  2  0
M  END
>  <From>  (1) 
www.bindingDB.org

>  <BindingDB Reactant_set_id>  (1) 
50069244

>  <Ligand InChI>  (1) 
InChI=1S/C28H31N3O2/c1-5-8-26-29-27-19(2)15-21(17-30(3)4)16-25(27)31(26)18-20-11-13-22(14-12-20)23-9-6-7-10-24(23)28(32)33/h6-7,9-16H,5,8,17-18H2,1-4H3,(H,32,33)

>  <Ligand InChI Key>  (1) 
CAQRHLOFHNXARY-UHFFFAOYSA-N

>  <BindingDB MonomerID>  (1) 
50043275

>  <BindingDB Ligand Name>  (1) 
4'-(6-Dimethylaminomethyl-4-methyl-2-propyl-benzoimidazol-1-ylmethyl)-biphenyl-2-carboxylic acid::CHEMBL130322

>  <Target Name>  (1) 
Type-1 angiotensin II receptor B

>  <Target Source Organism According to Curator or DataSource>  (1) 
Rattus

>  <Ki (nM)>  (1) 


>  <IC50 (nM)>  (1) 
 158

>  <Kd (nM)>  (1) 


>  <EC50 (nM)>  (1) 


>  <kon (M-1-s-1)>  (1) 


>  <koff (s-1)>  (1) 


>  <pH>  (1) 


>  <Temp C>  (1) 


>  <Curation/DataSource>  (1) 
ChEMBL

>  <Article DOI>  (1) 
10.1021/jm00077a007

>  <BindingDB Entry DOI>  (1) 
10.7270/Q2V98746

>  <PMID>  (1) 
8258826

>  <PubChem AID>  (1) 


>  <Patent Number>  (1) 


>  <Authors>  (1) 
Ries, UJ; Mihm, G; Narr, B; Hasselbach, KM; Wittneben, H; Entzeroth, M; van Meel, JC; Wienen, W; Hauel, NH

>  <Institution>  (1) 
Dr. Karl Thomae GmbH

>  <Link to Ligand in BindingDB>  (1) 
http://www.bindingdb.org/bind/chemsearch/marvin/MolStructure.jsp?monomerid=50043275

>  <Link to Ligand-Target Pair in BindingDB>  (1) 
http://www.bindingdb.org/jsp/dbsearch/PrimarySearch_ki.jsp?energyterm=kJ/mole&tag=r21&monomerid=50043275&enzyme=Type-1+angiotensin+II+receptor+B&column=ki&startPg=0&Increment=50&submit=Search

>  <Ligand HET ID in PDB>  (1) 


>  <PDB ID(s) for Ligand-Target Complex>  (1) 


>  <PubChem CID of Ligand>  (1) 
10094859

>  <PubChem SID of Ligand>  (1) 
103974744

>  <ChEBI ID of Ligand>  (1) 


>  <ChEMBL ID of Ligand>  (1) 
CHEMBL130322

>  <DrugBank ID of Ligand>  (1) 


>  <IUPHAR_GRAC ID of Ligand>  (1) 


>  <KEGG ID of Ligand>  (1) 


>  <ZINC ID of Ligand>  (1) 
ZINC13732092

>  <Number of Protein Chains in Target (bigger than 1 implies a multichain complex)>  (1) 
1

>  <BindingDB Target Chain Sequence>  (1) 
MTLNSSTEDGIKRIQDDCPKAGRHNYIFVMIPTLYSIIFVVGIFGNSLVVIVIYFYMKLKTVASVFLLNLALADLCFLLTLPLWAVYTAMEYRWPFGNHLCKIASASVSFNLYASVFLLTCLSIDRYLAIVHPMKSRLRRTMLVAKVTCIIIWLMAGLASLPAVIYRNVYFIENTNITVCAFHYESQNSTLPIGLGLTKNILGFVFPFLIILTSYTLIWKALKKAYKIQKNTPRNDDIFRIIMAIVLFFFFSWVPHQIFTFLDVLIQLGIIRDCEIADIVDTAMPITICIAYFNNCLNPLFYGFLGKKFKKYFLQLLKYIPPTAKSHAGLSTKMSTLSYRPSDNMSSSAKKSASFFEVE

>  <PDB ID(s) of Target Chain>  (1) 


>  <UniProt (SwissProt) Recommended Name of Target Chain>  (1) 
Type-1 angiotensin II receptor B

>  <UniProt (SwissProt) Entry Name of Target Chain>  (1) 
AGTRB_RAT

>  <UniProt (SwissProt) Primary ID of Target Chain>  (1) 
P29089

>  <UniProt (SwissProt) Secondary ID(s) of Target Chain>  (1) 


>  <UniProt (SwissProt) Alternative ID(s) of Target Chain>  (1) 


>  <UniProt (TrEMBL) Submitted Name of Target Chain>  (1) 


>  <UniProt (TrEMBL) Entry Name of Target Chain>  (1) 


>  <UniProt (TrEMBL) Primary ID of Target Chain>  (1) 


>  <UniProt (TrEMBL) Secondary ID(s) of Target Chain>  (1) 


>  <UniProt (TrEMBL) Alternative ID(s) of Target Chain>  (1) 


$$$$
