0482.cdx
     RDKit          2D

 41 46  0  0  0  0  0  0  0  0999 V2000
   -4.2071   -1.3130    0.0000 C   0  0  0  0  0  0  0  0  0  0  0  0
   -4.2071   -2.1380    0.0000 C   0  0  0  0  0  0  0  0  0  0  0  0
   -3.4927   -2.5505    0.0000 C   0  0  0  0  0  0  0  0  0  0  0  0
   -2.7782   -2.1380    0.0000 C   0  0  0  0  0  0  0  0  0  0  0  0
   -2.7782   -1.3130    0.0000 C   0  0  0  0  0  0  0  0  0  0  0  0
   -3.4927   -0.9005    0.0000 C   0  0  0  0  0  0  0  0  0  0  0  0
   -1.3492   -1.3130    0.0000 C   0  0  0  0  0  0  0  0  0  0  0  0
   -2.0637   -0.9005    0.0000 C   0  0  0  0  0  0  0  0  0  0  0  0
   -0.6348   -0.9005    0.0000 C   0  0  0  0  0  0  0  0  0  0  0  0
   -0.6348   -0.0755    0.0000 C   0  0  0  0  0  0  0  0  0  0  0  0
   -1.3492    0.3370    0.0000 C   0  0  0  0  0  0  0  0  0  0  0  0
   -2.0637   -0.0755    0.0000 C   0  0  0  0  0  0  0  0  0  0  0  0
   -1.8088   -3.3351    0.0000 N   0  0  0  0  0  0  0  0  0  0  0  0
   -0.9838   -3.3351    0.0000 C   0  0  0  0  0  0  0  0  0  0  0  0
   -0.7288   -2.5505    0.0000 O   0  0  0  0  0  0  0  0  0  0  0  0
   -1.3963   -2.0655    0.0000 N   0  0  0  0  0  0  0  0  0  0  0  0
   -2.0637   -2.5505    0.0000 C   0  0  0  0  0  0  0  0  0  0  0  0
   -0.5713   -4.0495    0.0000 O   0  0  0  0  0  0  0  0  0  0  0  0
    0.0797    0.3370    0.0000 C   0  0  0  0  0  0  0  0  0  0  0  0
    0.0797    1.1620    0.0000 N   0  0  0  0  0  0  0  0  0  0  0  0
    0.7942    1.5745    0.0000 C   0  0  0  0  0  0  0  0  0  0  0  0
    0.7942    2.3995    0.0000 N   0  0  0  0  0  0  0  0  0  0  0  0
    0.0797    2.8120    0.0000 C   0  0  0  0  0  0  0  0  0  0  0  0
   -0.6348    2.3995    0.0000 C   0  0  0  0  0  0  0  0  0  0  0  0
   -0.6348    1.5745    0.0000 C   0  0  0  0  0  0  0  0  0  0  0  0
   -1.4194    2.6545    0.0000 C   0  0  0  0  0  0  0  0  0  0  0  0
   -1.9043    1.9870    0.0000 C   0  0  0  0  0  0  0  0  0  0  0  0
   -1.4194    1.3196    0.0000 S   0  0  0  0  0  0  0  0  0  0  0  0
   -2.7293    1.9870    0.0000 C   0  0  0  0  0  0  0  0  0  0  0  0
   -3.1418    2.7015    0.0000 C   0  0  0  0  0  0  0  0  0  0  0  0
    1.5086    2.8120    0.0000 C   0  0  0  0  0  0  0  0  0  0  0  0
    1.5086    1.1620    0.0000 O   0  0  0  0  0  0  0  0  0  0  0  0
    0.0797    3.6370    0.0000 O   0  0  0  0  0  0  0  0  0  0  0  0
    2.2231    2.3995    0.0000 C   0  0  0  0  0  0  0  0  0  0  0  0
    2.2231    1.5745    0.0000 O   0  0  0  0  0  0  0  0  0  0  0  0
    2.9376    2.8120    0.0000 C   0  0  0  0  0  0  0  0  0  0  0  0
    2.9376    3.6370    0.0000 C   0  0  0  0  0  0  0  0  0  0  0  0
    3.7222    2.5571    0.0000 S   0  0  0  0  0  0  0  0  0  0  0  0
    4.2071    3.2245    0.0000 C   0  0  0  0  0  0  0  0  0  0  0  0
    3.7222    3.8920    0.0000 C   0  0  0  0  0  0  0  0  0  0  0  0
    2.2231    4.0495    0.0000 Br  0  0  0  0  0  0  0  0  0  0  0  0
  1  2  2  0
  2  3  1  0
  3  4  2  0
  4  5  1  0
  5  6  2  0
  6  1  1  0
  4 17  1  0
  7  8  2  0
  8  5  1  0
  7  9  1  0
  9 10  2  0
 10 11  1  0
 11 12  2  0
 12  8  1  0
 13 14  1  0
 14 15  1  0
 15 16  1  0
 16 17  1  0
 17 13  2  0
 14 18  2  0
 10 19  1  0
 19 20  1  0
 20 21  1  0
 21 22  1  0
 22 23  1  0
 23 24  1  0
 24 25  2  0
 25 20  1  0
 24 26  1  0
 26 27  2  0
 27 28  1  0
 28 25  1  0
 27 29  1  0
 29 30  1  0
 22 31  1  0
 21 32  2  0
 23 33  2  0
 31 34  1  0
 34 36  1  0
 34 35  2  0
 36 37  2  0
 36 38  1  0
 38 39  1  0
 39 40  2  0
 40 37  1  0
 37 41  1  0
M  END
>  <From>  (1) 
www.bindingDB.org

>  <BindingDB Reactant_set_id>  (1) 
216991

>  <Ligand InChI>  (1) 
InChI=1S/C29H21BrN4O5S2/c1-2-18-13-21-26(36)33(15-23(35)24-22(30)11-12-40-24)29(38)34(27(21)41-18)14-16-7-9-17(10-8-16)19-5-3-4-6-20(19)25-31-28(37)39-32-25/h3-13H,2,14-15H2,1H3,(H,31,32,37)

>  <Ligand InChI Key>  (1) 
PDTCRLQHYFYEIG-UHFFFAOYSA-N

>  <BindingDB MonomerID>  (1) 
99994

>  <BindingDB Ligand Name>  (1) 
US8501750, 222

>  <Target Name>  (1) 
Type-1 angiotensin II receptor

>  <Target Source Organism According to Curator or DataSource>  (1) 
Homo sapiens

>  <Ki (nM)>  (1) 


>  <IC50 (nM)>  (1) 
 1.9

>  <Kd (nM)>  (1) 


>  <EC50 (nM)>  (1) 


>  <kon (M-1-s-1)>  (1) 


>  <koff (s-1)>  (1) 


>  <pH>  (1) 


>  <Temp C>  (1) 


>  <Curation/DataSource>  (1) 
US Patent

>  <Article DOI>  (1) 


>  <BindingDB Entry DOI>  (1) 
10.7270/Q2F76B5Q

>  <PMID>  (1) 


>  <PubChem AID>  (1) 
aid1800000

>  <Patent Number>  (1) 
US8501750

>  <Authors>  (1) 
Kuroita, T; Igawa, H; Sakamoto, H; Asano, K; Sasaki, M

>  <Institution>  (1) 
Takeda Pharmaceutical Co., Ltd

>  <Link to Ligand in BindingDB>  (1) 
http://www.bindingdb.org/bind/chemsearch/marvin/MolStructure.jsp?monomerid=99994

>  <Link to Ligand-Target Pair in BindingDB>  (1) 
http://www.bindingdb.org/jsp/dbsearch/PrimarySearch_ki.jsp?energyterm=kJ/mole&tag=r21&monomerid=99994&enzyme=Type-1+angiotensin+II+receptor&column=ki&startPg=0&Increment=50&submit=Search

>  <Ligand HET ID in PDB>  (1) 


>  <PDB ID(s) for Ligand-Target Complex>  (1) 


>  <PubChem CID of Ligand>  (1) 
59351728

>  <PubChem SID of Ligand>  (1) 
164041238

>  <ChEBI ID of Ligand>  (1) 


>  <ChEMBL ID of Ligand>  (1) 


>  <DrugBank ID of Ligand>  (1) 


>  <IUPHAR_GRAC ID of Ligand>  (1) 


>  <KEGG ID of Ligand>  (1) 


>  <ZINC ID of Ligand>  (1) 
ZINC96170005

>  <Number of Protein Chains in Target (bigger than 1 implies a multichain complex)>  (1) 
1

>  <BindingDB Target Chain Sequence>  (1) 
MILNSSTEDGIKRIQDDCPKAGRHNYIFVMIPTLYSIIFVVGIFGNSLVVIVIYFYMKLKTVASVFLLNLALADLCFLLTLPLWAVYTAMEYRWPFGNYLCKIASASVSFNLYASVFLLTCLSIDRYLAIVHPMKSRLRRTMLVAKVTCIIIWLLAGLASLPAIIHRNVFFIENTNITVCAFHYESQNSTLPIGLGLTKNILGFLFPFLIILTSYTLIWKALKKAYEIQKNKPRNDDIFKIIMAIVLFFFFSWIPHQIFTFLDVLIQLGIIRDCRIADIVDTAMPITICIAYFNNCLNPLFYGFLGKKFKRYFLQLLKYIPPKAKSHSNLSTKMSTLSYRPSDNVSSSTKKPAPCFEVE

>  <PDB ID(s) of Target Chain>  (1) 
6DO1,6OS0,6OS1,6OS2

>  <UniProt (SwissProt) Recommended Name of Target Chain>  (1) 
Type-1 angiotensin II receptor

>  <UniProt (SwissProt) Entry Name of Target Chain>  (1) 
AGTR1_HUMAN

>  <UniProt (SwissProt) Primary ID of Target Chain>  (1) 
P30556

>  <UniProt (SwissProt) Secondary ID(s) of Target Chain>  (1) 
Q13725 Q8TBK4

>  <UniProt (SwissProt) Alternative ID(s) of Target Chain>  (1) 


>  <UniProt (TrEMBL) Submitted Name of Target Chain>  (1) 


>  <UniProt (TrEMBL) Entry Name of Target Chain>  (1) 


>  <UniProt (TrEMBL) Primary ID of Target Chain>  (1) 


>  <UniProt (TrEMBL) Secondary ID(s) of Target Chain>  (1) 


>  <UniProt (TrEMBL) Alternative ID(s) of Target Chain>  (1) 


$$$$
