
     RDKit          2D

 40 46  0  0  0  0  0  0  0  0999 V2000
   19.5692   -3.4207    0.0000 C   0  0  0  0  0  0  0  0  0  0  0  0
   19.5680   -4.2482    0.0000 C   0  0  0  0  0  0  0  0  0  0  0  0
   20.2829   -4.6610    0.0000 C   0  0  0  0  0  0  0  0  0  0  0  0
   20.9993   -4.2477    0.0000 C   0  0  0  0  0  0  0  0  0  0  0  0
   20.9964   -3.4171    0.0000 C   0  0  0  0  0  0  0  0  0  0  0  0
   20.2811   -3.0080    0.0000 C   0  0  0  0  0  0  0  0  0  0  0  0
   18.8495   -2.1860    0.0000 C   0  0  0  0  0  0  0  0  0  0  0  0
   19.5660   -1.7727    0.0000 N   0  0  0  0  0  0  0  0  0  0  0  0
   19.5631   -0.9421    0.0000 C   0  0  0  0  0  0  0  0  0  0  0  0
   18.8477   -0.5330    0.0000 C   0  0  0  0  0  0  0  0  0  0  0  0
   18.1348   -1.7732    0.0000 C   0  0  0  0  0  0  0  0  0  0  0  0
   18.1360   -0.9442    0.0000 C   0  0  0  0  0  0  0  0  0  0  0  0
   17.3480   -0.6869    0.0000 N   0  0  0  0  0  0  0  0  0  0  0  0
   16.8597   -1.3568    0.0000 C   0  0  0  0  0  0  0  0  0  0  0  0
   17.3460   -2.0281    0.0000 N   0  0  0  0  0  0  0  0  0  0  0  0
   16.0347   -1.3556    0.0000 C   0  0  0  0  0  0  0  0  0  0  0  0
   15.6233   -0.6406    0.0000 C   0  0  0  0  0  0  0  0  0  0  0  0
   17.0882   -2.8126    0.0000 C   0  0  0  0  0  0  0  0  0  0  0  0
   17.0864   -4.1475    0.0000 C   0  0  0  0  0  0  0  0  0  0  0  0
   17.5722   -3.4807    0.0000 C   0  0  0  0  0  0  0  0  0  0  0  0
   16.3021   -3.8914    0.0000 C   0  0  0  0  0  0  0  0  0  0  0  0
   16.3051   -3.0679    0.0000 C   0  0  0  0  0  0  0  0  0  0  0  0
   15.5947   -2.6554    0.0000 C   0  0  0  0  0  0  0  0  0  0  0  0
   14.8806   -3.0652    0.0000 C   0  0  0  0  0  0  0  0  0  0  0  0
   14.8816   -3.8917    0.0000 C   0  0  0  0  0  0  0  0  0  0  0  0
   15.5926   -4.3006    0.0000 C   0  0  0  0  0  0  0  0  0  0  0  0
   14.1680   -4.3072    0.0000 C   0  0  0  0  0  0  0  0  0  0  0  0
   13.4526   -3.8940    0.0000 C   0  0  0  0  0  0  0  0  0  0  0  0
   12.7393   -4.3069    0.0000 C   0  0  0  0  0  0  0  0  0  0  0  0
   12.7401   -5.1327    0.0000 C   0  0  0  0  0  0  0  0  0  0  0  0
   13.4602   -5.5440    0.0000 C   0  0  0  0  0  0  0  0  0  0  0  0
   14.1706   -5.1288    0.0000 C   0  0  0  0  0  0  0  0  0  0  0  0
   14.8877   -5.5389    0.0000 C   0  0  0  0  0  0  0  0  0  0  0  0
   14.9774   -6.3589    0.0000 N   0  0  0  0  0  0  0  0  0  0  0  0
   15.7852   -6.5270    0.0000 N   0  0  0  0  0  0  0  0  0  0  0  0
   16.1946   -5.8107    0.0000 N   0  0  0  0  0  0  0  0  0  0  0  0
   15.6400   -5.2002    0.0000 N   0  0  0  0  0  0  0  0  0  0  0  0
   18.8493   -3.0110    0.0000 O   0  0  0  0  0  0  0  0  0  0  0  0
   20.2811   -2.1841    0.0000 C   0  0  0  0  0  0  0  0  0  0  0  0
   21.7144   -4.6591    0.0000 F   0  0  0  0  0  0  0  0  0  0  0  0
  1  2  2  0
  2  3  1  0
  3  4  2  0
  4  5  1  0
  5  6  2  0
  6  1  1  0
 11  7  1  0
  7  8  1  0
  8  9  1  0
  9 10  2  0
 10 12  1  0
 11 12  2  0
 12 13  1  0
 13 14  2  0
 14 15  1  0
 15 11  1  0
 14 16  1  0
 16 17  1  0
 18 22  1  0
 21 19  1  0
 19 20  1  0
 18 20  1  0
 18 15  1  1
 21 22  2  0
 22 23  1  0
 23 24  2  0
 24 25  1  0
 25 26  2  0
 26 21  1  0
 27 28  2  0
 28 29  1  0
 29 30  2  0
 30 31  1  0
 31 32  2  0
 32 27  1  0
 25 27  1  0
 33 34  1  0
 34 35  1  0
 35 36  2  0
 36 37  1  0
 37 33  2  0
 32 33  1  0
  7 38  2  0
  8 39  1  0
 39  6  1  0
  4 40  1  0
M  END
>  <From>  (1) 
www.bindingDB.org

>  <BindingDB Reactant_set_id>  (1) 
51045887

>  <Ligand InChI>  (1) 
InChI=1S/C31H26FN7O/c1-2-28-33-26-14-15-38(18-19-6-5-7-22(32)16-19)31(40)29(26)39(28)27-13-11-21-17-20(10-12-24(21)27)23-8-3-4-9-25(23)30-34-36-37-35-30/h3-10,12,14-17,27H,2,11,13,18H2,1H3,(H,34,35,36,37)/t27-/m0/s1

>  <Ligand InChI Key>  (1) 
JLNFWGWIKOBDNT-MHZLTWQESA-N

>  <BindingDB MonomerID>  (1) 
50426784

>  <BindingDB Ligand Name>  (1) 
CHEMBL2322448

>  <Target Name>  (1) 
Type-1 angiotensin II receptor

>  <Target Source Organism According to Curator or DataSource>  (1) 
Homo sapiens

>  <Ki (nM)>  (1) 


>  <IC50 (nM)>  (1) 
 67

>  <Kd (nM)>  (1) 


>  <EC50 (nM)>  (1) 


>  <kon (M-1-s-1)>  (1) 


>  <koff (s-1)>  (1) 


>  <pH>  (1) 


>  <Temp C>  (1) 


>  <Curation/DataSource>  (1) 
ChEMBL

>  <Article DOI>  (1) 
10.1016/j.bmcl.2012.11.088

>  <BindingDB Entry DOI>  (1) 
10.7270/Q2542PW7

>  <PMID>  (1) 
23265881

>  <PubChem AID>  (1) 


>  <Patent Number>  (1) 


>  <Authors>  (1) 
Casimiro-Garcia, A; Heemstra, RJ; Bigge, CF; Chen, J; Ciske, FA; Davis, JA; Ellis, T; Esmaeil, N; Flynn, D; Han, S; Jalaie, M; Ohren, JF; Powell, NA

>  <Institution>  (1) 
Pfizer Inc

>  <Link to Ligand in BindingDB>  (1) 
http://www.bindingdb.org/bind/chemsearch/marvin/MolStructure.jsp?monomerid=50426784

>  <Link to Ligand-Target Pair in BindingDB>  (1) 
http://www.bindingdb.org/jsp/dbsearch/PrimarySearch_ki.jsp?energyterm=kJ/mole&tag=r21&monomerid=50426784&enzyme=Type-1+angiotensin+II+receptor&column=ki&startPg=0&Increment=50&submit=Search

>  <Ligand HET ID in PDB>  (1) 


>  <PDB ID(s) for Ligand-Target Complex>  (1) 


>  <PubChem CID of Ligand>  (1) 
71521419

>  <PubChem SID of Ligand>  (1) 
164155659

>  <ChEBI ID of Ligand>  (1) 


>  <ChEMBL ID of Ligand>  (1) 
CHEMBL2322448

>  <DrugBank ID of Ligand>  (1) 


>  <IUPHAR_GRAC ID of Ligand>  (1) 


>  <KEGG ID of Ligand>  (1) 


>  <ZINC ID of Ligand>  (1) 
ZINC95580889

>  <Number of Protein Chains in Target (bigger than 1 implies a multichain complex)>  (1) 
1

>  <BindingDB Target Chain Sequence>  (1) 
MILNSSTEDGIKRIQDDCPKAGRHNYIFVMIPTLYSIIFVVGIFGNSLVVIVIYFYMKLKTVASVFLLNLALADLCFLLTLPLWAVYTAMEYRWPFGNYLCKIASASVSFNLYASVFLLTCLSIDRYLAIVHPMKSRLRRTMLVAKVTCIIIWLLAGLASLPAIIHRNVFFIENTNITVCAFHYESQNSTLPIGLGLTKNILGFLFPFLIILTSYTLIWKALKKAYEIQKNKPRNDDIFKIIMAIVLFFFFSWIPHQIFTFLDVLIQLGIIRDCRIADIVDTAMPITICIAYFNNCLNPLFYGFLGKKFKRYFLQLLKYIPPKAKSHSNLSTKMSTLSYRPSDNVSSSTKKPAPCFEVE

>  <PDB ID(s) of Target Chain>  (1) 
6DO1,6OS0,6OS1,6OS2

>  <UniProt (SwissProt) Recommended Name of Target Chain>  (1) 
Type-1 angiotensin II receptor

>  <UniProt (SwissProt) Entry Name of Target Chain>  (1) 
AGTR1_HUMAN

>  <UniProt (SwissProt) Primary ID of Target Chain>  (1) 
P30556

>  <UniProt (SwissProt) Secondary ID(s) of Target Chain>  (1) 
Q13725 Q8TBK4

>  <UniProt (SwissProt) Alternative ID(s) of Target Chain>  (1) 


>  <UniProt (TrEMBL) Submitted Name of Target Chain>  (1) 


>  <UniProt (TrEMBL) Entry Name of Target Chain>  (1) 


>  <UniProt (TrEMBL) Primary ID of Target Chain>  (1) 


>  <UniProt (TrEMBL) Secondary ID(s) of Target Chain>  (1) 


>  <UniProt (TrEMBL) Alternative ID(s) of Target Chain>  (1) 


$$$$
