
     RDKit          2D

 32 36  0  0  0  0  0  0  0  0999 V2000
    1.2369   -1.5617    0.0000 N   0  0  0  0  0  0  0  0  0  0  0  0
    0.5747   -1.0745    0.0000 C   0  0  0  0  0  0  0  0  0  0  0  0
    0.8371   -0.2916    0.0000 C   0  0  0  0  0  0  0  0  0  0  0  0
    1.6617   -0.2916    0.0000 N   0  0  0  0  0  0  0  0  0  0  0  0
    1.9033   -1.0870    0.0000 C   0  0  0  0  0  0  0  0  0  0  0  0
    0.8288    0.5330    0.0000 C   0  0  0  0  0  0  0  0  0  0  0  0
    0.0375   -0.0750    0.0000 C   0  0  0  0  0  0  0  0  0  0  0  0
    4.7768   -3.6524    0.0000 C   0  0  0  0  0  0  0  0  0  0  0  0
    4.0605   -4.0647    0.0000 C   0  0  0  0  0  0  0  0  0  0  0  0
    4.7768   -2.8278    0.0000 C   0  0  0  0  0  0  0  0  0  0  0  0
    1.2411    1.2494    0.0000 C   0  0  0  0  0  0  0  0  0  0  0  0
    0.2416    1.1202    0.0000 C   0  0  0  0  0  0  0  0  0  0  0  0
   -0.6830   -0.4790    0.0000 C   0  0  0  0  0  0  0  0  0  0  0  0
   -0.7621    0.1457    0.0000 C   0  0  0  0  0  0  0  0  0  0  0  0
    1.2244   -2.3863    0.0000 C   0  0  0  0  0  0  0  0  0  0  0  0
   -0.2124   -1.3161    0.0000 O   0  0  0  0  0  0  0  0  0  0  0  0
    3.3525   -3.6482    0.0000 C   0  0  0  0  0  0  0  0  0  0  0  0
    4.0730   -2.4155    0.0000 O   0  0  0  0  0  0  0  0  0  0  0  0
    3.3608   -2.8153    0.0000 C   0  0  0  0  0  0  0  0  0  0  0  0
    2.6362   -4.0522    0.0000 C   0  0  0  0  0  0  0  0  0  0  0  0
    1.9365   -2.8111    0.0000 C   0  0  0  0  0  0  0  0  0  0  0  0
    5.4973   -2.4280    0.0000 O   0  0  0  0  0  0  0  0  0  0  0  0
    2.6904   -1.3493    0.0000 C   0  0  0  0  0  0  0  0  0  0  0  0
    2.6529   -2.4030    0.0000 C   0  0  0  0  0  0  0  0  0  0  0  0
    1.9241   -3.6357    0.0000 C   0  0  0  0  0  0  0  0  0  0  0  0
    5.4890   -4.0772    0.0000 C   0  0  0  0  0  0  0  0  0  0  0  0
    4.0522   -4.8893    0.0000 C   0  0  0  0  0  0  0  0  0  0  0  0
    3.3109   -0.8038    0.0000 C   0  0  0  0  0  0  0  0  0  0  0  0
    4.0897   -1.0662    0.0000 C   0  0  0  0  0  0  0  0  0  0  0  0
    5.4765   -4.9018    0.0000 C   0  0  0  0  0  0  0  0  0  0  0  0
    4.7644   -5.3016    0.0000 C   0  0  0  0  0  0  0  0  0  0  0  0
    4.7102   -0.5164    0.0000 C   0  0  0  0  0  0  0  0  0  0  0  0
  2  1  1  0
  3  2  1  0
  4  5  2  0
  5  1  1  0
  6  3  1  0
  7  3  1  0
  8  9  2  0
  9 17  1  0
 10  8  1  0
 11  6  1  0
 12  6  1  0
 13  7  1  0
 14  7  1  0
 15  1  1  0
 16  2  2  0
 17 20  2  0
 18 10  2  0
 19 24  2  0
 20 25  1  0
 21 15  1  0
 22 10  1  0
 23  5  1  0
 24 21  1  0
 25 21  2  0
 26  8  1  0
 27  9  1  0
 28 23  1  0
 29 28  1  0
 30 31  1  0
 31 27  2  0
 32 29  1  0
  3  4  1  0
 17 19  1  0
 13 14  1  0
 11 12  1  0
 26 30  2  0
M  END
>  <From>  (1) 
www.bindingDB.org

>  <BindingDB Reactant_set_id>  (1) 
50067256

>  <Ligand InChI>  (1) 
InChI=1S/C27H30N2O3/c1-2-3-8-24-28-27(20-13-14-20,21-15-16-21)26(32)29(24)17-18-9-11-19(12-10-18)22-6-4-5-7-23(22)25(30)31/h4-7,9-12,20-21H,2-3,8,13-17H2,1H3,(H,30,31)

>  <Ligand InChI Key>  (1) 
FQVWHIPNXPBODO-UHFFFAOYSA-N

>  <BindingDB MonomerID>  (1) 
50042239

>  <BindingDB Ligand Name>  (1) 
4'-(2-Butyl-4,4-dicyclopropyl-5-oxo-4,5-dihydro-imidazol-1-ylmethyl)-biphenyl-2-carboxylic acid::CHEMBL44268

>  <Target Name>  (1) 
Type-1 angiotensin II receptor B

>  <Target Source Organism According to Curator or DataSource>  (1) 
Rattus

>  <Ki (nM)>  (1) 


>  <IC50 (nM)>  (1) 
 80

>  <Kd (nM)>  (1) 


>  <EC50 (nM)>  (1) 


>  <kon (M-1-s-1)>  (1) 


>  <koff (s-1)>  (1) 


>  <pH>  (1) 


>  <Temp C>  (1) 


>  <Curation/DataSource>  (1) 
ChEMBL

>  <Article DOI>  (1) 
10.1021/jm00074a018

>  <BindingDB Entry DOI>  (1) 
10.7270/Q22Z14M0

>  <PMID>  (1) 
8230127

>  <PubChem AID>  (1) 


>  <Patent Number>  (1) 


>  <Authors>  (1) 
Bernhart, CA; Perreaut, PM; Ferrari, BP; Muneaux, YA; Assens, JL; Clement, J; Haudricourt, F; Muneaux, CF; Taillades, JE; Vignal, MA

>  <Institution>  (1) 
Sanofi Recherche

>  <Link to Ligand in BindingDB>  (1) 
http://www.bindingdb.org/bind/chemsearch/marvin/MolStructure.jsp?monomerid=50042239

>  <Link to Ligand-Target Pair in BindingDB>  (1) 
http://www.bindingdb.org/jsp/dbsearch/PrimarySearch_ki.jsp?energyterm=kJ/mole&tag=r21&monomerid=50042239&enzyme=Type-1+angiotensin+II+receptor+B&column=ki&startPg=0&Increment=50&submit=Search

>  <Ligand HET ID in PDB>  (1) 


>  <PDB ID(s) for Ligand-Target Complex>  (1) 


>  <PubChem CID of Ligand>  (1) 
19422646

>  <PubChem SID of Ligand>  (1) 
103973847

>  <ChEBI ID of Ligand>  (1) 


>  <ChEMBL ID of Ligand>  (1) 
CHEMBL44268

>  <DrugBank ID of Ligand>  (1) 


>  <IUPHAR_GRAC ID of Ligand>  (1) 


>  <KEGG ID of Ligand>  (1) 


>  <ZINC ID of Ligand>  (1) 
ZINC13833560

>  <Number of Protein Chains in Target (bigger than 1 implies a multichain complex)>  (1) 
1

>  <BindingDB Target Chain Sequence>  (1) 
MTLNSSTEDGIKRIQDDCPKAGRHNYIFVMIPTLYSIIFVVGIFGNSLVVIVIYFYMKLKTVASVFLLNLALADLCFLLTLPLWAVYTAMEYRWPFGNHLCKIASASVSFNLYASVFLLTCLSIDRYLAIVHPMKSRLRRTMLVAKVTCIIIWLMAGLASLPAVIYRNVYFIENTNITVCAFHYESQNSTLPIGLGLTKNILGFVFPFLIILTSYTLIWKALKKAYKIQKNTPRNDDIFRIIMAIVLFFFFSWVPHQIFTFLDVLIQLGIIRDCEIADIVDTAMPITICIAYFNNCLNPLFYGFLGKKFKKYFLQLLKYIPPTAKSHAGLSTKMSTLSYRPSDNMSSSAKKSASFFEVE

>  <PDB ID(s) of Target Chain>  (1) 


>  <UniProt (SwissProt) Recommended Name of Target Chain>  (1) 
Type-1 angiotensin II receptor B

>  <UniProt (SwissProt) Entry Name of Target Chain>  (1) 
AGTRB_RAT

>  <UniProt (SwissProt) Primary ID of Target Chain>  (1) 
P29089

>  <UniProt (SwissProt) Secondary ID(s) of Target Chain>  (1) 


>  <UniProt (SwissProt) Alternative ID(s) of Target Chain>  (1) 


>  <UniProt (TrEMBL) Submitted Name of Target Chain>  (1) 


>  <UniProt (TrEMBL) Entry Name of Target Chain>  (1) 


>  <UniProt (TrEMBL) Primary ID of Target Chain>  (1) 


>  <UniProt (TrEMBL) Secondary ID(s) of Target Chain>  (1) 


>  <UniProt (TrEMBL) Alternative ID(s) of Target Chain>  (1) 


$$$$
