
     RDKit          2D

 30 33  0  0  0  0  0  0  0  0999 V2000
   11.4689    1.0524    0.0000 N   0  0  0  0  0  0  0  0  0  0  0  0
   11.2193    1.8435    0.0000 C   0  0  0  0  0  0  0  0  0  0  0  0
   10.3900    1.8495    0.0000 C   0  0  0  0  0  0  0  0  0  0  0  0
   10.1279    1.0630    0.0000 N   0  0  0  0  0  0  0  0  0  0  0  0
   10.7949    0.5708    0.0000 C   0  0  0  0  0  0  0  0  0  0  0  0
   10.7887   -0.2542    0.0000 C   0  0  0  0  0  0  0  0  0  0  0  0
   10.0711   -0.6613    0.0000 O   0  0  0  0  0  0  0  0  0  0  0  0
   12.1812    0.6361    0.0000 C   0  0  0  0  0  0  0  0  0  0  0  0
   12.1768   -0.1889    0.0000 C   0  0  0  0  0  0  0  0  0  0  0  0
   11.4607   -0.5933    0.0000 C   0  0  0  0  0  0  0  0  0  0  0  0
   11.4559   -1.4175    0.0000 C   0  0  0  0  0  0  0  0  0  0  0  0
   12.1687   -1.8347    0.0000 C   0  0  0  0  0  0  0  0  0  0  0  0
   12.8878   -1.4216    0.0000 C   0  0  0  0  0  0  0  0  0  0  0  0
   12.8890   -0.5987    0.0000 C   0  0  0  0  0  0  0  0  0  0  0  0
   12.1664   -2.6551    0.0000 C   0  0  0  0  0  0  0  0  0  0  0  0
   11.4487   -3.0641    0.0000 C   0  0  0  0  0  0  0  0  0  0  0  0
   11.4450   -3.8884    0.0000 C   0  0  0  0  0  0  0  0  0  0  0  0
   12.1583   -4.3046    0.0000 C   0  0  0  0  0  0  0  0  0  0  0  0
   12.8768   -3.8905    0.0000 C   0  0  0  0  0  0  0  0  0  0  0  0
   12.8770   -3.0676    0.0000 C   0  0  0  0  0  0  0  0  0  0  0  0
   13.5917   -2.6530    0.0000 C   0  0  0  0  0  0  0  0  0  0  0  0
   14.3770   -2.9056    0.0000 N   0  0  0  0  0  0  0  0  0  0  0  0
   14.8600   -2.2367    0.0000 N   0  0  0  0  0  0  0  0  0  0  0  0
   14.3730   -1.5706    0.0000 N   0  0  0  0  0  0  0  0  0  0  0  0
   13.5892   -1.8281    0.0000 N   0  0  0  0  0  0  0  0  0  0  0  0
   11.6350    2.5561    0.0000 C   0  0  0  0  0  0  0  0  0  0  0  0
   12.4600    2.5523    0.0000 C   0  0  0  0  0  0  0  0  0  0  0  0
   12.8758    3.2649    0.0000 C   0  0  0  0  0  0  0  0  0  0  0  0
   13.7008    3.2611    0.0000 C   0  0  0  0  0  0  0  0  0  0  0  0
    9.9101    2.5206    0.0000 Cl  0  0  0  0  0  0  0  0  0  0  0  0
  6  7  1  0
  2  3  2  0
 15 16  2  0
  1  8  1  0
 16 17  1  0
  3  4  1  0
 17 18  2  0
  8  9  1  0
 18 19  1  0
  4  5  2  0
 19 20  2  0
 20 15  1  0
 12 15  1  0
 21 22  1  0
  9 10  2  0
  5  1  1  0
 10 11  1  0
  1  2  1  0
 11 12  2  0
 22 23  1  0
 23 24  2  0
 24 25  1  0
 25 21  2  0
 20 21  1  0
  5  6  1  0
  2 26  1  0
 12 13  1  0
 26 27  1  0
 27 28  1  0
 13 14  2  0
 28 29  1  0
 14  9  1  0
  3 30  1  0
M  END
>  <From>  (1) 
www.bindingDB.org

>  <BindingDB Reactant_set_id>  (1) 
50949591

>  <Ligand InChI>  (1) 
InChI=1S/C22H23ClN6O/c1-2-3-8-19-21(23)24-20(14-30)29(19)13-15-9-11-16(12-10-15)17-6-4-5-7-18(17)22-25-27-28-26-22/h4-7,9-12,30H,2-3,8,13-14H2,1H3,(H,25,26,27,28)

>  <Ligand InChI Key>  (1) 
FMEPUAVETBWWSZ-UHFFFAOYSA-N

>  <BindingDB MonomerID>  (1) 
50389546

>  <BindingDB Ligand Name>  (1) 
CHEMBL2063980

>  <Target Name>  (1) 
Type-1 angiotensin II receptor

>  <Target Source Organism According to Curator or DataSource>  (1) 
Homo sapiens

>  <Ki (nM)>  (1) 


>  <IC50 (nM)>  (1) 
 634

>  <Kd (nM)>  (1) 


>  <EC50 (nM)>  (1) 


>  <kon (M-1-s-1)>  (1) 


>  <koff (s-1)>  (1) 


>  <pH>  (1) 


>  <Temp C>  (1) 


>  <Curation/DataSource>  (1) 
ChEMBL

>  <Article DOI>  (1) 
10.1016/j.ejmech.2012.07.040

>  <BindingDB Entry DOI>  (1) 
10.7270/Q23B617T

>  <PMID>  (1) 
22889560

>  <PubChem AID>  (1) 


>  <Patent Number>  (1) 


>  <Authors>  (1) 
Agelis, G; Resvani, A; Durdagi, S; Spyridaki, K; Tumova, T; Slaninova, J; Giannopoulos, P; Vlahakos, D; Liapakis, G; Mavromoustakos, T; Matsoukas, J

>  <Institution>  (1) 
University of Patras

>  <Link to Ligand in BindingDB>  (1) 
http://www.bindingdb.org/bind/chemsearch/marvin/MolStructure.jsp?monomerid=50389546

>  <Link to Ligand-Target Pair in BindingDB>  (1) 
http://www.bindingdb.org/jsp/dbsearch/PrimarySearch_ki.jsp?energyterm=kJ/mole&tag=r21&monomerid=50389546&enzyme=Type-1+angiotensin+II+receptor&column=ki&startPg=0&Increment=50&submit=Search

>  <Ligand HET ID in PDB>  (1) 


>  <PDB ID(s) for Ligand-Target Complex>  (1) 


>  <PubChem CID of Ligand>  (1) 
70684421

>  <PubChem SID of Ligand>  (1) 
160868629

>  <ChEBI ID of Ligand>  (1) 


>  <ChEMBL ID of Ligand>  (1) 
CHEMBL2063980

>  <DrugBank ID of Ligand>  (1) 


>  <IUPHAR_GRAC ID of Ligand>  (1) 


>  <KEGG ID of Ligand>  (1) 


>  <ZINC ID of Ligand>  (1) 
ZINC84670654

>  <Number of Protein Chains in Target (bigger than 1 implies a multichain complex)>  (1) 
1

>  <BindingDB Target Chain Sequence>  (1) 
MILNSSTEDGIKRIQDDCPKAGRHNYIFVMIPTLYSIIFVVGIFGNSLVVIVIYFYMKLKTVASVFLLNLALADLCFLLTLPLWAVYTAMEYRWPFGNYLCKIASASVSFNLYASVFLLTCLSIDRYLAIVHPMKSRLRRTMLVAKVTCIIIWLLAGLASLPAIIHRNVFFIENTNITVCAFHYESQNSTLPIGLGLTKNILGFLFPFLIILTSYTLIWKALKKAYEIQKNKPRNDDIFKIIMAIVLFFFFSWIPHQIFTFLDVLIQLGIIRDCRIADIVDTAMPITICIAYFNNCLNPLFYGFLGKKFKRYFLQLLKYIPPKAKSHSNLSTKMSTLSYRPSDNVSSSTKKPAPCFEVE

>  <PDB ID(s) of Target Chain>  (1) 
6DO1,6OS0,6OS1,6OS2

>  <UniProt (SwissProt) Recommended Name of Target Chain>  (1) 
Type-1 angiotensin II receptor

>  <UniProt (SwissProt) Entry Name of Target Chain>  (1) 
AGTR1_HUMAN

>  <UniProt (SwissProt) Primary ID of Target Chain>  (1) 
P30556

>  <UniProt (SwissProt) Secondary ID(s) of Target Chain>  (1) 
Q13725 Q8TBK4

>  <UniProt (SwissProt) Alternative ID(s) of Target Chain>  (1) 


>  <UniProt (TrEMBL) Submitted Name of Target Chain>  (1) 


>  <UniProt (TrEMBL) Entry Name of Target Chain>  (1) 


>  <UniProt (TrEMBL) Primary ID of Target Chain>  (1) 


>  <UniProt (TrEMBL) Secondary ID(s) of Target Chain>  (1) 


>  <UniProt (TrEMBL) Alternative ID(s) of Target Chain>  (1) 


$$$$
