
     RDKit          2D

 36 40  0  0  0  0  0  0  0  0999 V2000
    6.2792   -4.3714    0.0000 C   0  0  0  0  0  0  0  0  0  0  0  0
    5.6089   -3.8844    0.0000 N   0  0  0  0  0  0  0  0  0  0  0  0
    6.0214   -5.1620    0.0000 C   0  0  0  0  0  0  0  0  0  0  0  0
    4.9386   -4.3714    0.0000 N   0  0  0  0  0  0  0  0  0  0  0  0
    5.1964   -5.1620    0.0000 C   0  0  0  0  0  0  0  0  0  0  0  0
    9.9058   -4.3141    0.0000 C   0  0  0  0  0  0  0  0  0  0  0  0
    9.5105   -3.0422    0.0000 N   0  0  0  0  0  0  0  0  0  0  0  0
    9.2469   -3.8214    0.0000 N   0  0  0  0  0  0  0  0  0  0  0  0
   10.3297   -3.0480    0.0000 N   0  0  0  0  0  0  0  0  0  0  0  0
   10.5761   -3.8328    0.0000 N   0  0  0  0  0  0  0  0  0  0  0  0
    7.0641   -4.1136    0.0000 C   0  0  0  0  0  0  0  0  0  0  0  0
   10.1980   -5.0933    0.0000 C   0  0  0  0  0  0  0  0  0  0  0  0
    9.7969   -5.8151    0.0000 C   0  0  0  0  0  0  0  0  0  0  0  0
    6.5026   -5.8266    0.0000 C   0  0  0  0  0  0  0  0  0  0  0  0
    5.8094   -3.0823    0.0000 C   0  0  0  0  0  0  0  0  0  0  0  0
    8.9719   -5.8151    0.0000 C   0  0  0  0  0  0  0  0  0  0  0  0
    7.8605   -4.5089    0.0000 O   0  0  0  0  0  0  0  0  0  0  0  0
    8.5480   -5.1105    0.0000 C   0  0  0  0  0  0  0  0  0  0  0  0
    8.5651   -6.5313    0.0000 C   0  0  0  0  0  0  0  0  0  0  0  0
    7.3276   -5.8151    0.0000 C   0  0  0  0  0  0  0  0  0  0  0  0
    7.2417   -3.3058    0.0000 O   0  0  0  0  0  0  0  0  0  0  0  0
    7.7401   -6.5370    0.0000 C   0  0  0  0  0  0  0  0  0  0  0  0
    7.7344   -5.1105    0.0000 C   0  0  0  0  0  0  0  0  0  0  0  0
    4.7151   -5.8266    0.0000 C   0  0  0  0  0  0  0  0  0  0  0  0
   11.0230   -5.0933    0.0000 C   0  0  0  0  0  0  0  0  0  0  0  0
   10.2094   -6.5313    0.0000 C   0  0  0  0  0  0  0  0  0  0  0  0
    6.6000   -2.8589    0.0000 C   0  0  0  0  0  0  0  0  0  0  0  0
    5.2250   -2.5151    0.0000 C   0  0  0  0  0  0  0  0  0  0  0  0
    3.8844   -5.8151    0.0000 C   0  0  0  0  0  0  0  0  0  0  0  0
    3.4605   -6.5198    0.0000 C   0  0  0  0  0  0  0  0  0  0  0  0
   11.0344   -6.5198    0.0000 C   0  0  0  0  0  0  0  0  0  0  0  0
   11.4355   -5.8094    0.0000 C   0  0  0  0  0  0  0  0  0  0  0  0
    2.6355   -6.5198    0.0000 C   0  0  0  0  0  0  0  0  0  0  0  0
    6.7948   -2.0683    0.0000 C   0  0  0  0  0  0  0  0  0  0  0  0
    5.4141   -1.7245    0.0000 C   0  0  0  0  0  0  0  0  0  0  0  0
    6.2105   -1.4953    0.0000 C   0  0  0  0  0  0  0  0  0  0  0  0
  2  1  1  0
  3  1  2  0
  4  2  1  0
  5  3  1  0
  6 12  1  0
  7  8  1  0
  8  6  1  0
  9 10  1  0
 10  6  2  0
 11  1  1  0
 12 13  1  0
 13 16  1  0
 14  3  1  0
 15  2  1  0
 16 18  2  0
 17 11  2  0
 18 23  1  0
 19 22  2  0
 20 14  1  0
 21 11  1  0
 22 20  1  0
 23 20  2  0
 24  5  1  0
 25 12  2  0
 26 13  2  0
 27 15  2  0
 28 15  1  0
 29 24  1  0
 30 29  1  0
 31 26  1  0
 32 31  2  0
 33 30  1  0
 34 27  1  0
 35 28  2  0
 36 35  1  0
  5  4  2  0
 16 19  1  0
 36 34  2  0
 32 25  1  0
  7  9  2  0
M  END
>  <From>  (1) 
www.bindingDB.org

>  <BindingDB Reactant_set_id>  (1) 
50061743

>  <Ligand InChI>  (1) 
InChI=1S/C28H26N6O2/c1-2-3-13-25-24(26(28(35)36)34(31-25)21-9-5-4-6-10-21)18-19-14-16-20(17-15-19)22-11-7-8-12-23(22)27-29-32-33-30-27/h4-12,14-17H,2-3,13,18H2,1H3,(H,35,36)(H,29,30,32,33)

>  <Ligand InChI Key>  (1) 
XVYBSTMVIVLXAO-UHFFFAOYSA-N

>  <BindingDB MonomerID>  (1) 
50042555

>  <BindingDB Ligand Name>  (1) 
5-Butyl-2-phenyl-4-[2'-(1H-tetrazol-5-yl)-biphenyl-4-ylmethyl]-2H-pyrazole-3-carboxylic acid::CHEMBL327982

>  <Target Name>  (1) 
Type-1 angiotensin II receptor

>  <Target Source Organism According to Curator or DataSource>  (1) 
Oryctolagus cuniculus

>  <Ki (nM)>  (1) 


>  <IC50 (nM)>  (1) 
 2.9

>  <Kd (nM)>  (1) 


>  <EC50 (nM)>  (1) 


>  <kon (M-1-s-1)>  (1) 


>  <koff (s-1)>  (1) 


>  <pH>  (1) 


>  <Temp C>  (1) 


>  <Curation/DataSource>  (1) 
ChEMBL

>  <Article DOI>  (1) 
10.1021/jm00075a014

>  <BindingDB Entry DOI>  (1) 
10.7270/Q25Q4V5H

>  <PMID>  (1) 
8246227

>  <PubChem AID>  (1) 


>  <Patent Number>  (1) 


>  <Authors>  (1) 
Ashton, WT; Hutchins, SM; Greenlee, WJ; Doss, GA; Chang, RS; Lotti, VJ; Faust, KA; Chen, TB; Zingaro, GJ; Kivlighn, SD

>  <Institution>  (1) 
Merck Research Laboratories

>  <Link to Ligand in BindingDB>  (1) 
http://www.bindingdb.org/bind/chemsearch/marvin/MolStructure.jsp?monomerid=50042555

>  <Link to Ligand-Target Pair in BindingDB>  (1) 
http://www.bindingdb.org/jsp/dbsearch/PrimarySearch_ki.jsp?energyterm=kJ/mole&tag=r21&monomerid=50042555&enzyme=Type-1+angiotensin+II+receptor&column=ki&startPg=0&Increment=50&submit=Search

>  <Ligand HET ID in PDB>  (1) 


>  <PDB ID(s) for Ligand-Target Complex>  (1) 


>  <PubChem CID of Ligand>  (1) 
14971697

>  <PubChem SID of Ligand>  (1) 
103974151

>  <ChEBI ID of Ligand>  (1) 


>  <ChEMBL ID of Ligand>  (1) 
CHEMBL327982

>  <DrugBank ID of Ligand>  (1) 


>  <IUPHAR_GRAC ID of Ligand>  (1) 


>  <KEGG ID of Ligand>  (1) 


>  <ZINC ID of Ligand>  (1) 
ZINC01554899

>  <Number of Protein Chains in Target (bigger than 1 implies a multichain complex)>  (1) 
1

>  <BindingDB Target Chain Sequence>  (1) 
MMLNSSTEDGIKRIQDDCPKAGRHNYIFVMIPTLYSIIFVVGIFGNSLAVIVIYFYMKLKTVASVFLLNLALADLCFLLTLPLWAVYTAMEYRWPFGNYLCKIASASVSFNLYASVFLLTCLSIDRYLAIVHPMKSRLRRTMLVAKVTCIIIWLLAGLASLPAIIHRNVFFIENTNITVCAFHYESQNSTLPIGLGLTKNILGFLFPFLIILTSYTLIWKALKKAYEIQKNKPRNDDIFKIIMAIVLFFFFSWVPHQIFTFLDVLIQLGVIHDCRIADIVDTAMPITICIAYFNNCLNPLFYGFLGKKFKKYFLQLLKYIPPKAKSHSNLSTKMSTLSYRPSDNVSSSSKKPVPCFEVE

>  <PDB ID(s) of Target Chain>  (1) 
6DO1,6OS0,6OS1,6OS2

>  <UniProt (SwissProt) Recommended Name of Target Chain>  (1) 
Type-1 angiotensin II receptor

>  <UniProt (SwissProt) Entry Name of Target Chain>  (1) 
AGTR1_RABIT

>  <UniProt (SwissProt) Primary ID of Target Chain>  (1) 
P34976

>  <UniProt (SwissProt) Secondary ID(s) of Target Chain>  (1) 


>  <UniProt (SwissProt) Alternative ID(s) of Target Chain>  (1) 


>  <UniProt (TrEMBL) Submitted Name of Target Chain>  (1) 


>  <UniProt (TrEMBL) Entry Name of Target Chain>  (1) 


>  <UniProt (TrEMBL) Primary ID of Target Chain>  (1) 


>  <UniProt (TrEMBL) Secondary ID(s) of Target Chain>  (1) 


>  <UniProt (TrEMBL) Alternative ID(s) of Target Chain>  (1) 


$$$$
