
     RDKit          2D

 38 43  0  0  0  0  0  0  0  0999 V2000
    2.3584   -1.9119    0.0000 N   0  0  0  0  0  0  0  0  0  0  0  0
    2.4271   -0.5725    0.0000 N   0  0  0  0  0  0  0  0  0  0  0  0
    2.8736   -1.2708    0.0000 C   0  0  0  0  0  0  0  0  0  0  0  0
    1.5856   -1.6200    0.0000 C   0  0  0  0  0  0  0  0  0  0  0  0
    5.9131   -3.1484    0.0000 C   0  0  0  0  0  0  0  0  0  0  0  0
    5.4952   -1.8948    0.0000 N   0  0  0  0  0  0  0  0  0  0  0  0
    5.2434   -2.6675    0.0000 N   0  0  0  0  0  0  0  0  0  0  0  0
    6.3081   -1.8776    0.0000 N   0  0  0  0  0  0  0  0  0  0  0  0
   -0.5609   -1.9291    0.0000 N   0  0  0  0  0  0  0  0  0  0  0  0
    1.6314   -0.7957    0.0000 C   0  0  0  0  0  0  0  0  0  0  0  0
    0.8586   -1.9978    0.0000 C   0  0  0  0  0  0  0  0  0  0  0  0
    6.5771   -2.6675    0.0000 N   0  0  0  0  0  0  0  0  0  0  0  0
    0.1717   -1.5513    0.0000 C   0  0  0  0  0  0  0  0  0  0  0  0
    5.9245   -3.9726    0.0000 C   0  0  0  0  0  0  0  0  0  0  0  0
   -1.2650   -1.4826    0.0000 C   0  0  0  0  0  0  0  0  0  0  0  0
    5.2091   -4.3848    0.0000 C   0  0  0  0  0  0  0  0  0  0  0  0
    2.3584   -2.7362    0.0000 C   0  0  0  0  0  0  0  0  0  0  0  0
    4.4992   -3.9726    0.0000 C   0  0  0  0  0  0  0  0  0  0  0  0
    0.9331   -0.3492    0.0000 C   0  0  0  0  0  0  0  0  0  0  0  0
    0.2061   -0.7270    0.0000 C   0  0  0  0  0  0  0  0  0  0  0  0
   -1.2307   -0.6697    0.0000 O   0  0  0  0  0  0  0  0  0  0  0  0
    4.4992   -3.1484    0.0000 C   0  0  0  0  0  0  0  0  0  0  0  0
    3.7837   -4.3848    0.0000 C   0  0  0  0  0  0  0  0  0  0  0  0
    3.0739   -3.1484    0.0000 C   0  0  0  0  0  0  0  0  0  0  0  0
    3.6979   -1.3109    0.0000 C   0  0  0  0  0  0  0  0  0  0  0  0
   -0.6010   -2.7534    0.0000 C   0  0  0  0  0  0  0  0  0  0  0  0
    3.7837   -2.7362    0.0000 C   0  0  0  0  0  0  0  0  0  0  0  0
    3.0739   -3.9726    0.0000 C   0  0  0  0  0  0  0  0  0  0  0  0
   -1.9920   -1.8604    0.0000 C   0  0  0  0  0  0  0  0  0  0  0  0
    6.6344   -4.3790    0.0000 C   0  0  0  0  0  0  0  0  0  0  0  0
    5.2091   -5.2091    0.0000 C   0  0  0  0  0  0  0  0  0  0  0  0
    4.1444   -0.6182    0.0000 C   0  0  0  0  0  0  0  0  0  0  0  0
    4.9687   -0.6583    0.0000 C   0  0  0  0  0  0  0  0  0  0  0  0
   -1.3395   -3.1312    0.0000 C   0  0  0  0  0  0  0  0  0  0  0  0
   -2.0378   -2.6847    0.0000 C   0  0  0  0  0  0  0  0  0  0  0  0
    5.9303   -5.6212    0.0000 C   0  0  0  0  0  0  0  0  0  0  0  0
    6.6458   -5.2091    0.0000 C   0  0  0  0  0  0  0  0  0  0  0  0
    5.4151    0.0343    0.0000 C   0  0  0  0  0  0  0  0  0  0  0  0
  2  3  2  0
  3  1  1  0
  4  1  1  0
  5 14  1  0
  6  7  1  0
  7  5  1  0
  8 12  1  0
  9 13  1  0
 10  4  2  0
 11  4  1  0
 12  5  2  0
 13 11  2  0
 14 16  1  0
 15  9  1  0
 16 18  1  0
 17  1  1  0
 18 23  2  0
 19 10  1  0
 20 13  1  0
 21 15  2  0
 22 27  2  0
 23 28  1  0
 24 17  1  0
 25  3  1  0
 26  9  1  0
 27 24  1  0
 28 24  2  0
 29 15  1  0
 30 14  2  0
 31 16  2  0
 32 25  1  0
 33 32  1  0
 34 26  1  0
 35 34  1  0
 36 31  1  0
 37 36  2  0
 38 33  1  0
 10  2  1  0
 18 22  1  0
 20 19  2  0
 35 29  1  0
 37 30  1  0
  6  8  2  0
M  END
>  <From>  (1) 
www.bindingDB.org

>  <BindingDB Reactant_set_id>  (1) 
50069245

>  <Ligand InChI>  (1) 
InChI=1S/C30H31N7O/c1-2-3-10-28-31-26-17-16-23(36-18-7-6-11-29(36)38)19-27(26)37(28)20-21-12-14-22(15-13-21)24-8-4-5-9-25(24)30-32-34-35-33-30/h4-5,8-9,12-17,19H,2-3,6-7,10-11,18,20H2,1H3,(H,32,33,34,35)

>  <Ligand InChI Key>  (1) 
VDNYWPGFDZMZIL-UHFFFAOYSA-N

>  <BindingDB MonomerID>  (1) 
50043277

>  <BindingDB Ligand Name>  (1) 
1-{2-Butyl-3-[2'-(1H-tetrazol-5-yl)-biphenyl-4-ylmethyl]-3H-benzoimidazol-5-yl}-piperidin-2-one::CHEMBL128922

>  <Target Name>  (1) 
Type-1 angiotensin II receptor B

>  <Target Source Organism According to Curator or DataSource>  (1) 
Rattus

>  <Ki (nM)>  (1) 


>  <IC50 (nM)>  (1) 
 4

>  <Kd (nM)>  (1) 


>  <EC50 (nM)>  (1) 


>  <kon (M-1-s-1)>  (1) 


>  <koff (s-1)>  (1) 


>  <pH>  (1) 


>  <Temp C>  (1) 


>  <Curation/DataSource>  (1) 
ChEMBL

>  <Article DOI>  (1) 
10.1021/jm00077a007

>  <BindingDB Entry DOI>  (1) 
10.7270/Q2V98746

>  <PMID>  (1) 
8258826

>  <PubChem AID>  (1) 


>  <Patent Number>  (1) 


>  <Authors>  (1) 
Ries, UJ; Mihm, G; Narr, B; Hasselbach, KM; Wittneben, H; Entzeroth, M; van Meel, JC; Wienen, W; Hauel, NH

>  <Institution>  (1) 
Dr. Karl Thomae GmbH

>  <Link to Ligand in BindingDB>  (1) 
http://www.bindingdb.org/bind/chemsearch/marvin/MolStructure.jsp?monomerid=50043277

>  <Link to Ligand-Target Pair in BindingDB>  (1) 
http://www.bindingdb.org/jsp/dbsearch/PrimarySearch_ki.jsp?energyterm=kJ/mole&tag=r21&monomerid=50043277&enzyme=Type-1+angiotensin+II+receptor+B&column=ki&startPg=0&Increment=50&submit=Search

>  <Ligand HET ID in PDB>  (1) 


>  <PDB ID(s) for Ligand-Target Complex>  (1) 


>  <PubChem CID of Ligand>  (1) 
10074895

>  <PubChem SID of Ligand>  (1) 
103974746

>  <ChEBI ID of Ligand>  (1) 


>  <ChEMBL ID of Ligand>  (1) 
CHEMBL128922

>  <DrugBank ID of Ligand>  (1) 


>  <IUPHAR_GRAC ID of Ligand>  (1) 


>  <KEGG ID of Ligand>  (1) 


>  <ZINC ID of Ligand>  (1) 
ZINC13732071

>  <Number of Protein Chains in Target (bigger than 1 implies a multichain complex)>  (1) 
1

>  <BindingDB Target Chain Sequence>  (1) 
MTLNSSTEDGIKRIQDDCPKAGRHNYIFVMIPTLYSIIFVVGIFGNSLVVIVIYFYMKLKTVASVFLLNLALADLCFLLTLPLWAVYTAMEYRWPFGNHLCKIASASVSFNLYASVFLLTCLSIDRYLAIVHPMKSRLRRTMLVAKVTCIIIWLMAGLASLPAVIYRNVYFIENTNITVCAFHYESQNSTLPIGLGLTKNILGFVFPFLIILTSYTLIWKALKKAYKIQKNTPRNDDIFRIIMAIVLFFFFSWVPHQIFTFLDVLIQLGIIRDCEIADIVDTAMPITICIAYFNNCLNPLFYGFLGKKFKKYFLQLLKYIPPTAKSHAGLSTKMSTLSYRPSDNMSSSAKKSASFFEVE

>  <PDB ID(s) of Target Chain>  (1) 


>  <UniProt (SwissProt) Recommended Name of Target Chain>  (1) 
Type-1 angiotensin II receptor B

>  <UniProt (SwissProt) Entry Name of Target Chain>  (1) 
AGTRB_RAT

>  <UniProt (SwissProt) Primary ID of Target Chain>  (1) 
P29089

>  <UniProt (SwissProt) Secondary ID(s) of Target Chain>  (1) 


>  <UniProt (SwissProt) Alternative ID(s) of Target Chain>  (1) 


>  <UniProt (TrEMBL) Submitted Name of Target Chain>  (1) 


>  <UniProt (TrEMBL) Entry Name of Target Chain>  (1) 


>  <UniProt (TrEMBL) Primary ID of Target Chain>  (1) 


>  <UniProt (TrEMBL) Secondary ID(s) of Target Chain>  (1) 


>  <UniProt (TrEMBL) Alternative ID(s) of Target Chain>  (1) 


$$$$
