
     RDKit          2D

 32 35  0  0  0  0  0  0  0  0999 V2000
   -0.0083   -2.5094    0.0000 N   0  0  0  0  0  0  0  0  0  0  0  0
    0.7057   -2.0960    0.0000 C   0  0  0  0  0  0  0  0  0  0  0  0
    0.7057   -1.2693    0.0000 C   0  0  0  0  0  0  0  0  0  0  0  0
   -0.7223   -1.2693    0.0000 N   0  0  0  0  0  0  0  0  0  0  0  0
   -0.7223   -2.0960    0.0000 C   0  0  0  0  0  0  0  0  0  0  0  0
   -0.0083   -0.8560    0.0000 C   0  0  0  0  0  0  0  0  0  0  0  0
    3.5699   -4.5762    0.0000 C   0  0  0  0  0  0  0  0  0  0  0  0
    2.8601   -4.9895    0.0000 C   0  0  0  0  0  0  0  0  0  0  0  0
    3.5616   -3.7452    0.0000 C   0  0  0  0  0  0  0  0  0  0  0  0
   -0.0083   -3.3361    0.0000 C   0  0  0  0  0  0  0  0  0  0  0  0
    1.4280   -2.5094    0.0000 O   0  0  0  0  0  0  0  0  0  0  0  0
    2.1336   -4.5762    0.0000 C   0  0  0  0  0  0  0  0  0  0  0  0
    1.4196   -0.8685    0.0000 C   0  0  0  0  0  0  0  0  0  0  0  0
    2.8434   -3.3361    0.0000 O   0  0  0  0  0  0  0  0  0  0  0  0
    2.1336   -3.7495    0.0000 C   0  0  0  0  0  0  0  0  0  0  0  0
    1.4196   -4.9895    0.0000 C   0  0  0  0  0  0  0  0  0  0  0  0
    0.7057   -3.7495    0.0000 C   0  0  0  0  0  0  0  0  0  0  0  0
    4.2755   -3.3319    0.0000 O   0  0  0  0  0  0  0  0  0  0  0  0
   -1.4363   -2.5052    0.0000 C   0  0  0  0  0  0  0  0  0  0  0  0
    0.0000   -0.0293    0.0000 C   0  0  0  0  0  0  0  0  0  0  0  0
    0.7057   -4.5762    0.0000 C   0  0  0  0  0  0  0  0  0  0  0  0
    1.4196   -3.3361    0.0000 C   0  0  0  0  0  0  0  0  0  0  0  0
    4.2839   -4.9853    0.0000 C   0  0  0  0  0  0  0  0  0  0  0  0
    2.8559   -5.8162    0.0000 C   0  0  0  0  0  0  0  0  0  0  0  0
    0.7140    0.3716    0.0000 C   0  0  0  0  0  0  0  0  0  0  0  0
    1.4280   -0.0418    0.0000 C   0  0  0  0  0  0  0  0  0  0  0  0
    2.1336   -1.2819    0.0000 C   0  0  0  0  0  0  0  0  0  0  0  0
   -2.1502   -2.0918    0.0000 C   0  0  0  0  0  0  0  0  0  0  0  0
   -2.8642   -2.4969    0.0000 C   0  0  0  0  0  0  0  0  0  0  0  0
    4.2881   -5.8162    0.0000 C   0  0  0  0  0  0  0  0  0  0  0  0
    3.5741   -6.2296    0.0000 C   0  0  0  0  0  0  0  0  0  0  0  0
   -3.5782   -2.0835    0.0000 C   0  0  0  0  0  0  0  0  0  0  0  0
  2  1  1  0
  3  2  1  0
  4  5  2  0
  5  1  1  0
  6  4  1  0
  7  8  2  0
  8 12  1  0
  9  7  1  0
 10  1  1  0
 11  2  2  0
 12 15  2  0
 13  3  2  0
 14  9  2  0
 15 22  1  0
 16 21  2  0
 17 10  1  0
 18  9  1  0
 19  5  1  0
 20  6  2  0
 21 17  1  0
 22 17  2  0
 23  7  1  0
 24  8  1  0
 25 20  1  0
 26 13  1  0
 27 13  1  0
 28 19  1  0
 29 28  1  0
 30 31  1  0
 31 24  2  0
 32 29  1  0
  3  6  1  0
 12 16  1  0
 25 26  2  0
 30 23  2  0
M  END
>  <From>  (1) 
www.bindingDB.org

>  <BindingDB Reactant_set_id>  (1) 
50466827

>  <Ligand InChI>  (1) 
InChI=1S/C27H26N2O3/c1-3-4-12-24-28-23-11-7-8-18(2)25(23)26(30)29(24)17-19-13-15-20(16-14-19)21-9-5-6-10-22(21)27(31)32/h5-11,13-16H,3-4,12,17H2,1-2H3,(H,31,32)

>  <Ligand InChI Key>  (1) 
DZKHAUSMNDNEJY-UHFFFAOYSA-N

>  <BindingDB MonomerID>  (1) 
50281928

>  <BindingDB Ligand Name>  (1) 
4'-(2-Butyl-5-methyl-4-oxo-4H-quinazolin-3-ylmethyl)-biphenyl-2-carboxylic acid::CHEMBL26048

>  <Target Name>  (1) 
Type-1 angiotensin II receptor

>  <Target Source Organism According to Curator or DataSource>  (1) 
Oryctolagus cuniculus

>  <Ki (nM)>  (1) 


>  <IC50 (nM)>  (1) 
 370

>  <Kd (nM)>  (1) 


>  <EC50 (nM)>  (1) 


>  <kon (M-1-s-1)>  (1) 


>  <koff (s-1)>  (1) 


>  <pH>  (1) 


>  <Temp C>  (1) 


>  <Curation/DataSource>  (1) 
ChEMBL

>  <Article DOI>  (1) 
10.1016/S0960-894X(00)80334-0

>  <BindingDB Entry DOI>  (1) 
10.7270/Q2FB52V1

>  <PMID>  (1) 


>  <PubChem AID>  (1) 


>  <Patent Number>  (1) 


>  <Authors>  (1) 
Allen, EE; de Laszlo, SE; Huang, SX; Quagliato, CS; Greenlee, WJ; Chang, RS; Chen, TB; Faust, KA; Lotti, VJ

>  <Institution>  (1) 
TBA

>  <Link to Ligand in BindingDB>  (1) 
http://www.bindingdb.org/bind/chemsearch/marvin/MolStructure.jsp?monomerid=50281928

>  <Link to Ligand-Target Pair in BindingDB>  (1) 
http://www.bindingdb.org/jsp/dbsearch/PrimarySearch_ki.jsp?energyterm=kJ/mole&tag=r21&monomerid=50281928&enzyme=Type-1+angiotensin+II+receptor&column=ki&startPg=0&Increment=50&submit=Search

>  <Ligand HET ID in PDB>  (1) 


>  <PDB ID(s) for Ligand-Target Complex>  (1) 


>  <PubChem CID of Ligand>  (1) 
44459634

>  <PubChem SID of Ligand>  (1) 
104123602

>  <ChEBI ID of Ligand>  (1) 


>  <ChEMBL ID of Ligand>  (1) 
CHEMBL26048

>  <DrugBank ID of Ligand>  (1) 


>  <IUPHAR_GRAC ID of Ligand>  (1) 


>  <KEGG ID of Ligand>  (1) 


>  <ZINC ID of Ligand>  (1) 
ZINC28755512

>  <Number of Protein Chains in Target (bigger than 1 implies a multichain complex)>  (1) 
1

>  <BindingDB Target Chain Sequence>  (1) 
MMLNSSTEDGIKRIQDDCPKAGRHNYIFVMIPTLYSIIFVVGIFGNSLAVIVIYFYMKLKTVASVFLLNLALADLCFLLTLPLWAVYTAMEYRWPFGNYLCKIASASVSFNLYASVFLLTCLSIDRYLAIVHPMKSRLRRTMLVAKVTCIIIWLLAGLASLPAIIHRNVFFIENTNITVCAFHYESQNSTLPIGLGLTKNILGFLFPFLIILTSYTLIWKALKKAYEIQKNKPRNDDIFKIIMAIVLFFFFSWVPHQIFTFLDVLIQLGVIHDCRIADIVDTAMPITICIAYFNNCLNPLFYGFLGKKFKKYFLQLLKYIPPKAKSHSNLSTKMSTLSYRPSDNVSSSSKKPVPCFEVE

>  <PDB ID(s) of Target Chain>  (1) 
6DO1,6OS0,6OS1,6OS2

>  <UniProt (SwissProt) Recommended Name of Target Chain>  (1) 
Type-1 angiotensin II receptor

>  <UniProt (SwissProt) Entry Name of Target Chain>  (1) 
AGTR1_RABIT

>  <UniProt (SwissProt) Primary ID of Target Chain>  (1) 
P34976

>  <UniProt (SwissProt) Secondary ID(s) of Target Chain>  (1) 


>  <UniProt (SwissProt) Alternative ID(s) of Target Chain>  (1) 


>  <UniProt (TrEMBL) Submitted Name of Target Chain>  (1) 


>  <UniProt (TrEMBL) Entry Name of Target Chain>  (1) 


>  <UniProt (TrEMBL) Primary ID of Target Chain>  (1) 


>  <UniProt (TrEMBL) Secondary ID(s) of Target Chain>  (1) 


>  <UniProt (TrEMBL) Alternative ID(s) of Target Chain>  (1) 


$$$$
