
     RDKit          2D

 38 40  0  0  0  0  0  0  0  0999 V2000
    1.8417   -1.8000    0.0000 N   0  0  0  0  0  0  0  0  0  0  0  0
    1.3625   -2.1542    0.0000 C   0  0  0  0  0  0  0  0  0  0  0  0
    1.0625   -1.2250    0.0000 C   0  0  0  0  0  0  0  0  0  0  0  0
    1.6625   -1.2250    0.0000 C   0  0  0  0  0  0  0  0  0  0  0  0
    0.8750   -1.8000    0.0000 N   0  0  0  0  0  0  0  0  0  0  0  0
    0.7042   -0.7417    0.0000 C   0  0  0  0  0  0  0  0  0  0  0  0
   -0.2958   -0.3542    0.0000 N   0  0  0  0  0  0  0  0  0  0  0  0
    0.1125   -0.8042    0.0000 C   0  0  0  0  0  0  0  0  0  0  0  0
   -0.7750   -1.1917    0.0000 N   0  0  0  0  0  0  0  0  0  0  0  0
   -0.8375   -0.6000    0.0000 C   0  0  0  0  0  0  0  0  0  0  0  0
   -0.1958   -1.3167    0.0000 C   0  0  0  0  0  0  0  0  0  0  0  0
    2.1125    0.9708    0.0000 C   0  0  0  0  0  0  0  0  0  0  0  0
    1.3542   -2.7542    0.0000 O   0  0  0  0  0  0  0  0  0  0  0  0
   -0.1708    0.2333    0.0000 C   0  0  0  0  0  0  0  0  0  0  0  0
    2.0042   -0.7417    0.0000 O   0  0  0  0  0  0  0  0  0  0  0  0
    1.5292    0.8333    0.0000 C   0  0  0  0  0  0  0  0  0  0  0  0
    2.2792    1.5458    0.0000 O   0  0  0  0  0  0  0  0  0  0  0  0
    2.4167   -1.9792    0.0000 C   0  0  0  0  0  0  0  0  0  0  0  0
    1.1042    1.2458    0.0000 C   0  0  0  0  0  0  0  0  0  0  0  0
    1.4167    0.1958    0.0000 C   0  0  0  0  0  0  0  0  0  0  0  0
    0.3042   -1.9792    0.0000 C   0  0  0  0  0  0  0  0  0  0  0  0
    0.4042    0.4208    0.0000 C   0  0  0  0  0  0  0  0  0  0  0  0
    2.5292    0.5375    0.0000 O   0  0  0  0  0  0  0  0  0  0  0  0
    0.8500    0.0125    0.0000 C   0  0  0  0  0  0  0  0  0  0  0  0
    0.5292    1.0000    0.0000 C   0  0  0  0  0  0  0  0  0  0  0  0
   -1.3583   -0.3000    0.0000 C   0  0  0  0  0  0  0  0  0  0  0  0
    3.1125    0.6750    0.0000 C   0  0  0  0  0  0  0  0  0  0  0  0
    2.5417   -2.5667    0.0000 C   0  0  0  0  0  0  0  0  0  0  0  0
    0.1792   -2.5667    0.0000 C   0  0  0  0  0  0  0  0  0  0  0  0
   -1.8833   -0.6000    0.0000 C   0  0  0  0  0  0  0  0  0  0  0  0
    3.1125   -2.7542    0.0000 C   0  0  0  0  0  0  0  0  0  0  0  0
   -2.4000   -0.3000    0.0000 C   0  0  0  0  0  0  0  0  0  0  0  0
   -1.0875   -3.5292    0.0000 C   0  0  0  0  0  0  0  0  0  0  0  0
   -0.5208   -3.3417    0.0000 C   0  0  0  0  0  0  0  0  0  0  0  0
   -0.3958   -2.7542    0.0000 C   0  0  0  0  0  0  0  0  0  0  0  0
   -2.9208   -0.6000    0.0000 C   0  0  0  0  0  0  0  0  0  0  0  0
    3.2375   -3.3417    0.0000 C   0  0  0  0  0  0  0  0  0  0  0  0
   -1.2125   -4.1167    0.0000 C   0  0  0  0  0  0  0  0  0  0  0  0
  2  1  1  0
  3  4  1  0
  4  1  1  0
  5  2  1  0
  6  3  2  0
  7  8  1  0
  8  6  1  0
  9 11  1  0
 10  7  1  0
 11  8  2  0
 12 16  1  0
 13  2  2  0
 14  7  1  0
 15  4  2  0
 16 19  2  0
 17 12  2  0
 18  1  1  0
 19 25  1  0
 20 24  2  0
 21  5  1  0
 22 14  1  0
 23 12  1  0
 24 22  1  0
 25 22  2  0
 26 10  1  0
 27 23  1  0
 28 18  1  0
 29 21  1  0
 30 26  1  0
 31 28  1  0
 32 30  1  0
 33 34  1  0
 34 35  1  0
 35 29  1  0
 36 32  1  0
 37 31  1  0
 38 33  1  0
  5  3  1  0
 10  9  2  0
 20 16  1  0
M  END
>  <From>  (1) 
www.bindingDB.org

>  <BindingDB Reactant_set_id>  (1) 
51186037

>  <Ligand InChI>  (1) 
InChI=1S/C30H42N4O4/c1-5-8-11-12-19-32-26(28(35)33(30(32)37)18-10-7-3)20-25-21-31-27(13-9-6-2)34(25)22-23-14-16-24(17-15-23)29(36)38-4/h14-17,20-21H,5-13,18-19,22H2,1-4H3/b26-20-

>  <Ligand InChI Key>  (1) 
CMECCSRIBZAWQV-QOMWVZHYSA-N

>  <BindingDB MonomerID>  (1) 
50487657

>  <BindingDB Ligand Name>  (1) 
CHEMBL341456

>  <Target Name>  (1) 
Type-1 angiotensin II receptor

>  <Target Source Organism According to Curator or DataSource>  (1) 
Homo sapiens

>  <Ki (nM)>  (1) 


>  <IC50 (nM)>  (1) 
 40

>  <Kd (nM)>  (1) 


>  <EC50 (nM)>  (1) 


>  <kon (M-1-s-1)>  (1) 


>  <koff (s-1)>  (1) 


>  <pH>  (1) 


>  <Temp C>  (1) 


>  <Curation/DataSource>  (1) 
ChEMBL

>  <Article DOI>  (1) 
10.1007/s00044-009-9205-9

>  <BindingDB Entry DOI>  (1) 
10.7270/Q2CC13K2

>  <PMID>  (1) 


>  <PubChem AID>  (1) 


>  <Patent Number>  (1) 


>  <Authors>  (1) 
n/a

>  <Institution>  (1) 
n/a

>  <Link to Ligand in BindingDB>  (1) 
http://www.bindingdb.org/bind/chemsearch/marvin/MolStructure.jsp?monomerid=50487657

>  <Link to Ligand-Target Pair in BindingDB>  (1) 
http://www.bindingdb.org/jsp/dbsearch/PrimarySearch_ki.jsp?energyterm=kJ/mole&tag=r21&monomerid=50487657&enzyme=Type-1+angiotensin+II+receptor&column=ki&startPg=0&Increment=50&submit=Search

>  <Ligand HET ID in PDB>  (1) 


>  <PDB ID(s) for Ligand-Target Complex>  (1) 


>  <PubChem CID of Ligand>  (1) 
10369479

>  <PubChem SID of Ligand>  (1) 
433954922

>  <ChEBI ID of Ligand>  (1) 


>  <ChEMBL ID of Ligand>  (1) 


>  <DrugBank ID of Ligand>  (1) 


>  <IUPHAR_GRAC ID of Ligand>  (1) 


>  <KEGG ID of Ligand>  (1) 


>  <ZINC ID of Ligand>  (1) 


>  <Number of Protein Chains in Target (bigger than 1 implies a multichain complex)>  (1) 
1

>  <BindingDB Target Chain Sequence>  (1) 
MILNSSTEDGIKRIQDDCPKAGRHNYIFVMIPTLYSIIFVVGIFGNSLVVIVIYFYMKLKTVASVFLLNLALADLCFLLTLPLWAVYTAMEYRWPFGNYLCKIASASVSFNLYASVFLLTCLSIDRYLAIVHPMKSRLRRTMLVAKVTCIIIWLLAGLASLPAIIHRNVFFIENTNITVCAFHYESQNSTLPIGLGLTKNILGFLFPFLIILTSYTLIWKALKKAYEIQKNKPRNDDIFKIIMAIVLFFFFSWIPHQIFTFLDVLIQLGIIRDCRIADIVDTAMPITICIAYFNNCLNPLFYGFLGKKFKRYFLQLLKYIPPKAKSHSNLSTKMSTLSYRPSDNVSSSTKKPAPCFEVE

>  <PDB ID(s) of Target Chain>  (1) 
6DO1,6OS0,6OS1,6OS2

>  <UniProt (SwissProt) Recommended Name of Target Chain>  (1) 
Type-1 angiotensin II receptor

>  <UniProt (SwissProt) Entry Name of Target Chain>  (1) 
AGTR1_HUMAN

>  <UniProt (SwissProt) Primary ID of Target Chain>  (1) 
P30556

>  <UniProt (SwissProt) Secondary ID(s) of Target Chain>  (1) 
Q13725 Q8TBK4

>  <UniProt (SwissProt) Alternative ID(s) of Target Chain>  (1) 


>  <UniProt (TrEMBL) Submitted Name of Target Chain>  (1) 


>  <UniProt (TrEMBL) Entry Name of Target Chain>  (1) 


>  <UniProt (TrEMBL) Primary ID of Target Chain>  (1) 


>  <UniProt (TrEMBL) Secondary ID(s) of Target Chain>  (1) 


>  <UniProt (TrEMBL) Alternative ID(s) of Target Chain>  (1) 


$$$$
