
     RDKit          2D

 34 38  0  0  0  0  0  0  0  0999 V2000
    1.4323  -12.0825    0.0000 N   0  0  0  0  0  0  0  0  0  0  0  0
    0.9453  -11.4122    0.0000 C   0  0  0  0  0  0  0  0  0  0  0  0
    2.2229  -11.8247    0.0000 C   0  0  0  0  0  0  0  0  0  0  0  0
    1.4265  -10.7419    0.0000 N   0  0  0  0  0  0  0  0  0  0  0  0
    4.7322  -15.2163    0.0000 C   0  0  0  0  0  0  0  0  0  0  0  0
    2.9276  -12.2372    0.0000 C   0  0  0  0  0  0  0  0  0  0  0  0
    4.6635  -13.8872    0.0000 N   0  0  0  0  0  0  0  0  0  0  0  0
    4.2166  -14.5746    0.0000 N   0  0  0  0  0  0  0  0  0  0  0  0
    5.4655  -14.1106    0.0000 N   0  0  0  0  0  0  0  0  0  0  0  0
    2.2171  -10.9883    0.0000 C   0  0  0  0  0  0  0  0  0  0  0  0
    5.4999  -14.9242    0.0000 N   0  0  0  0  0  0  0  0  0  0  0  0
    4.5088  -16.0184    0.0000 C   0  0  0  0  0  0  0  0  0  0  0  0
    2.9562  -12.9305    0.0000 C   0  0  0  0  0  0  0  0  0  0  0  0
    3.7124  -16.2132    0.0000 C   0  0  0  0  0  0  0  0  0  0  0  0
    1.4151  -13.8528    0.0000 C   0  0  0  0  0  0  0  0  0  0  0  0
    0.1203  -11.4180    0.0000 C   0  0  0  0  0  0  0  0  0  0  0  0
    3.1338  -15.6288    0.0000 C   0  0  0  0  0  0  0  0  0  0  0  0
    2.3088  -13.3086    0.0000 O   0  0  0  0  0  0  0  0  0  0  0  0
    3.4432  -14.8898    0.0000 C   0  0  0  0  0  0  0  0  0  0  0  0
    2.3374  -15.8293    0.0000 C   0  0  0  0  0  0  0  0  0  0  0  0
    1.9937  -14.4429    0.0000 C   0  0  0  0  0  0  0  0  0  0  0  0
    3.6608  -13.2055    0.0000 O   0  0  0  0  0  0  0  0  0  0  0  0
    3.6494  -11.8247    0.0000 C   0  0  0  0  0  0  0  0  0  0  0  0
    2.7901  -14.2367    0.0000 C   0  0  0  0  0  0  0  0  0  0  0  0
    1.7589  -15.2335    0.0000 C   0  0  0  0  0  0  0  0  0  0  0  0
    2.9276  -10.5758    0.0000 C   0  0  0  0  0  0  0  0  0  0  0  0
   -1.1286  -10.6961    0.0000 S   0  0  0  0  0  0  0  0  0  0  0  0
    5.0874  -16.6027    0.0000 C   0  0  0  0  0  0  0  0  0  0  0  0
    3.4890  -17.0152    0.0000 C   0  0  0  0  0  0  0  0  0  0  0  0
   -0.3036  -10.6961    0.0000 C   0  0  0  0  0  0  0  0  0  0  0  0
    3.6494  -10.9883    0.0000 C   0  0  0  0  0  0  0  0  0  0  0  0
   -1.5411   -9.9857    0.0000 C   0  0  0  0  0  0  0  0  0  0  0  0
    4.0619  -17.6053    0.0000 C   0  0  0  0  0  0  0  0  0  0  0  0
    4.8639  -17.3991    0.0000 C   0  0  0  0  0  0  0  0  0  0  0  0
  2  1  1  0
  3  1  1  0
  4  2  2  0
  5 12  1  0
  6  3  2  0
  7  8  1  0
  8  5  1  0
  9 11  1  0
 10  3  1  0
 11  5  2  0
 12 14  1  0
 13  6  1  0
 14 17  1  0
 15  1  1  0
 16  2  1  0
 17 20  2  0
 18 13  2  0
 19 24  2  0
 20 25  1  0
 21 15  1  0
 22 13  1  0
 23  6  1  0
 24 21  1  0
 25 21  2  0
 26 10  2  0
 27 30  1  0
 28 12  2  0
 29 14  2  0
 30 16  1  0
 31 26  1  0
 32 27  1  0
 33 29  1  0
 34 33  2  0
 10  4  1  0
 17 19  1  0
 23 31  2  0
 34 28  1  0
  9  7  2  0
M  END
>  <From>  (1) 
www.bindingDB.org

>  <BindingDB Reactant_set_id>  (1) 
50764794

>  <Ligand InChI>  (1) 
InChI=1S/C25H22N6O2S/c1-34-14-13-22-26-21-8-4-7-20(25(32)33)23(21)31(22)15-16-9-11-17(12-10-16)18-5-2-3-6-19(18)24-27-29-30-28-24/h2-12H,13-15H2,1H3,(H,32,33)(H,27,28,29,30)

>  <Ligand InChI Key>  (1) 
UTYLQSYFNJVLDL-UHFFFAOYSA-N

>  <BindingDB MonomerID>  (1) 
50044395

>  <BindingDB Ligand Name>  (1) 
2-(2-Methylsulfanyl-ethyl)-3-[2'-(1H-tetrazol-5-yl)-biphenyl-4-ylmethyl]-3H-benzoimidazole-4-carboxylic acid::CHEMBL70947

>  <Target Name>  (1) 
Type-1 angiotensin II receptor

>  <Target Source Organism According to Curator or DataSource>  (1) 
Bos taurus

>  <Ki (nM)>  (1) 


>  <IC50 (nM)>  (1) 
 620

>  <Kd (nM)>  (1) 


>  <EC50 (nM)>  (1) 


>  <kon (M-1-s-1)>  (1) 


>  <koff (s-1)>  (1) 


>  <pH>  (1) 


>  <Temp C>  (1) 


>  <Curation/DataSource>  (1) 
ChEMBL

>  <Article DOI>  (1) 
10.1021/jm00067a016

>  <BindingDB Entry DOI>  (1) 
10.7270/Q20Z73X8

>  <PMID>  (1) 
8340921

>  <PubChem AID>  (1) 


>  <Patent Number>  (1) 


>  <Authors>  (1) 
Kubo, K; Kohara, Y; Imamiya, E; Sugiura, Y; Inada, Y; Furukawa, Y; Nishikawa, K; Naka, T

>  <Institution>  (1) 
Takeda Chemical Industries, Ltd

>  <Link to Ligand in BindingDB>  (1) 
http://www.bindingdb.org/bind/chemsearch/marvin/MolStructure.jsp?monomerid=50044395

>  <Link to Ligand-Target Pair in BindingDB>  (1) 
http://www.bindingdb.org/jsp/dbsearch/PrimarySearch_ki.jsp?energyterm=kJ/mole&tag=r21&monomerid=50044395&enzyme=Type-1+angiotensin+II+receptor&column=ki&startPg=0&Increment=50&submit=Search

>  <Ligand HET ID in PDB>  (1) 


>  <PDB ID(s) for Ligand-Target Complex>  (1) 


>  <PubChem CID of Ligand>  (1) 
15654753

>  <PubChem SID of Ligand>  (1) 
103975649

>  <ChEBI ID of Ligand>  (1) 


>  <ChEMBL ID of Ligand>  (1) 
CHEMBL70947

>  <DrugBank ID of Ligand>  (1) 


>  <IUPHAR_GRAC ID of Ligand>  (1) 


>  <KEGG ID of Ligand>  (1) 


>  <ZINC ID of Ligand>  (1) 
ZINC13832278

>  <Number of Protein Chains in Target (bigger than 1 implies a multichain complex)>  (1) 
1

>  <BindingDB Target Chain Sequence>  (1) 
MILNSSTEDGIKRIQDDCPKAGRHNYIFIMIPTLYSIIFVVGIFGNSLVVIVIYFYMKLKTVASVFLLNLALADLCFLLTLPLWAVYTAMEYRWPFGNYLCKIASASVSFNLYASVFLLTCLSIDRYLAIVHPMKSRLRRTMLVAKVTCIIIWLLAGLASLPTIIHRNVFFIENTNITVCAFHYESQNSTLPVGLGLTKNILGFLFPFLIILTSYTLIWKTLKKAYEIQKNKPRKDDIFKIILAIVLFFFFSWVPHQIFTFMDVLIQLGLIRDCKIEDIVDTAMPITICLAYFNNCLNPLFYGFLGKKFKKYFLQLLKYIPPKAKSHSNLSTKMSTLSYRPSENGNSSTKKPAPCIEVE

>  <PDB ID(s) of Target Chain>  (1) 


>  <UniProt (SwissProt) Recommended Name of Target Chain>  (1) 
Type-1 angiotensin II receptor

>  <UniProt (SwissProt) Entry Name of Target Chain>  (1) 
AGTR1_BOVIN

>  <UniProt (SwissProt) Primary ID of Target Chain>  (1) 
P25104

>  <UniProt (SwissProt) Secondary ID(s) of Target Chain>  (1) 


>  <UniProt (SwissProt) Alternative ID(s) of Target Chain>  (1) 


>  <UniProt (TrEMBL) Submitted Name of Target Chain>  (1) 


>  <UniProt (TrEMBL) Entry Name of Target Chain>  (1) 


>  <UniProt (TrEMBL) Primary ID of Target Chain>  (1) 


>  <UniProt (TrEMBL) Secondary ID(s) of Target Chain>  (1) 


>  <UniProt (TrEMBL) Alternative ID(s) of Target Chain>  (1) 


$$$$
