
     RDKit          2D

 28 31  0  0  0  0  0  0  0  0999 V2000
    2.6573   -5.4730    0.0000 N   0  0  0  0  0  0  0  0  0  0  0  0
    1.8897   -5.1684    0.0000 C   0  0  0  0  0  0  0  0  0  0  0  0
    1.3641   -5.7984    0.0000 C   0  0  0  0  0  0  0  0  0  0  0  0
    1.8063   -6.4992    0.0000 N   0  0  0  0  0  0  0  0  0  0  0  0
    2.6030   -6.2947    0.0000 C   0  0  0  0  0  0  0  0  0  0  0  0
    8.7893   -7.3209    0.0000 N   0  0  0  0  0  0  0  0  0  0  0  0
    7.5629   -6.7870    0.0000 C   0  0  0  0  0  0  0  0  0  0  0  0
    8.2387   -7.9383    0.0000 N   0  0  0  0  0  0  0  0  0  0  0  0
    8.3721   -6.6076    0.0000 N   0  0  0  0  0  0  0  0  0  0  0  0
    7.4836   -7.6004    0.0000 N   0  0  0  0  0  0  0  0  0  0  0  0
    6.9497   -6.2364    0.0000 C   0  0  0  0  0  0  0  0  0  0  0  0
    3.3581   -5.0308    0.0000 C   0  0  0  0  0  0  0  0  0  0  0  0
    6.2322   -6.6493    0.0000 C   0  0  0  0  0  0  0  0  0  0  0  0
    5.5188   -6.2364    0.0000 C   0  0  0  0  0  0  0  0  0  0  0  0
    5.5188   -5.4104    0.0000 C   0  0  0  0  0  0  0  0  0  0  0  0
    4.0839   -5.4187    0.0000 C   0  0  0  0  0  0  0  0  0  0  0  0
    1.6894   -4.3675    0.0000 Cl  0  0  0  0  0  0  0  0  0  0  0  0
    4.7972   -5.0057    0.0000 C   0  0  0  0  0  0  0  0  0  0  0  0
    6.9455   -5.4062    0.0000 C   0  0  0  0  0  0  0  0  0  0  0  0
    6.2238   -4.9974    0.0000 C   0  0  0  0  0  0  0  0  0  0  0  0
    4.7972   -6.6576    0.0000 C   0  0  0  0  0  0  0  0  0  0  0  0
    0.5423   -5.7483    0.0000 C   0  0  0  0  0  0  0  0  0  0  0  0
    4.0922   -6.2489    0.0000 C   0  0  0  0  0  0  0  0  0  0  0  0
    3.2412   -6.8245    0.0000 C   0  0  0  0  0  0  0  0  0  0  0  0
   -0.0626   -6.3198    0.0000 O   0  0  0  0  0  0  0  0  0  0  0  0
    3.1036   -7.6380    0.0000 C   0  0  0  0  0  0  0  0  0  0  0  0
    3.7335   -8.1636    0.0000 C   0  0  0  0  0  0  0  0  0  0  0  0
    3.5958   -8.9770    0.0000 C   0  0  0  0  0  0  0  0  0  0  0  0
  2  1  1  0
  3  2  2  0
  4  5  2  0
  5  1  1  0
  6  9  1  0
  7 11  1  0
  8 10  1  0
  9  7  1  0
 10  7  2  0
 11 13  2  0
 12  1  1  0
 13 14  1  0
 14 21  2  0
 15 18  2  0
 16 12  1  0
 17  2  1  0
 18 16  1  0
 19 20  2  0
 20 15  1  0
 21 23  1  0
 22  3  1  0
 23 16  2  0
 24  5  1  0
 25 22  1  0
 26 24  1  0
 27 26  1  0
 28 27  1  0
  4  3  1  0
 14 15  1  0
 11 19  1  0
  6  8  2  0
M  END
>  <From>  (1) 
www.bindingDB.org

>  <BindingDB Reactant_set_id>  (1) 
50015045

>  <Ligand InChI>  (1) 
InChI=1S/C20H21ClN6O/c1-2-3-4-18-22-17(12-28)19(21)27(18)11-13-5-6-15-10-16(8-7-14(15)9-13)20-23-25-26-24-20/h5-10,28H,2-4,11-12H2,1H3,(H,23,24,25,26)

>  <Ligand InChI Key>  (1) 
ZCTWYUAMQBXOSD-UHFFFAOYSA-N

>  <BindingDB MonomerID>  (1) 
50010146

>  <BindingDB Ligand Name>  (1) 
CHEMBL322683::{2-Butyl-5-chloro-1-[6-(1H-tetrazol-5-yl)-naphthalen-2-ylmethyl]-1H-imidazol-4-yl}-methanol

>  <Target Name>  (1) 
Type-1 angiotensin II receptor B

>  <Target Source Organism According to Curator or DataSource>  (1) 
Rattus

>  <Ki (nM)>  (1) 


>  <IC50 (nM)>  (1) 
 200

>  <Kd (nM)>  (1) 


>  <EC50 (nM)>  (1) 


>  <kon (M-1-s-1)>  (1) 


>  <koff (s-1)>  (1) 


>  <pH>  (1) 


>  <Temp C>  (1) 


>  <Curation/DataSource>  (1) 
ChEMBL

>  <Article DOI>  (1) 
10.1021/jm00114a021

>  <BindingDB Entry DOI>  (1) 
10.7270/Q27S7MRP

>  <PMID>  (1) 
1920360

>  <PubChem AID>  (1) 


>  <Patent Number>  (1) 


>  <Authors>  (1) 
Buhlmayer, P; Criscione, L; Fuhrer, W; Furet, P; de Gasparo, M; Stutz, S; Whitebread, S

>  <Institution>  (1) 
Ciba-Geigy Limited

>  <Link to Ligand in BindingDB>  (1) 
http://www.bindingdb.org/bind/chemsearch/marvin/MolStructure.jsp?monomerid=50010146

>  <Link to Ligand-Target Pair in BindingDB>  (1) 
http://www.bindingdb.org/jsp/dbsearch/PrimarySearch_ki.jsp?energyterm=kJ/mole&tag=r21&monomerid=50010146&enzyme=Type-1+angiotensin+II+receptor+B&column=ki&startPg=0&Increment=50&submit=Search

>  <Ligand HET ID in PDB>  (1) 


>  <PDB ID(s) for Ligand-Target Complex>  (1) 


>  <PubChem CID of Ligand>  (1) 
15699056

>  <PubChem SID of Ligand>  (1) 
103923017

>  <ChEBI ID of Ligand>  (1) 


>  <ChEMBL ID of Ligand>  (1) 
CHEMBL322683

>  <DrugBank ID of Ligand>  (1) 


>  <IUPHAR_GRAC ID of Ligand>  (1) 


>  <KEGG ID of Ligand>  (1) 


>  <ZINC ID of Ligand>  (1) 
ZINC13825378

>  <Number of Protein Chains in Target (bigger than 1 implies a multichain complex)>  (1) 
1

>  <BindingDB Target Chain Sequence>  (1) 
MTLNSSTEDGIKRIQDDCPKAGRHNYIFVMIPTLYSIIFVVGIFGNSLVVIVIYFYMKLKTVASVFLLNLALADLCFLLTLPLWAVYTAMEYRWPFGNHLCKIASASVSFNLYASVFLLTCLSIDRYLAIVHPMKSRLRRTMLVAKVTCIIIWLMAGLASLPAVIYRNVYFIENTNITVCAFHYESQNSTLPIGLGLTKNILGFVFPFLIILTSYTLIWKALKKAYKIQKNTPRNDDIFRIIMAIVLFFFFSWVPHQIFTFLDVLIQLGIIRDCEIADIVDTAMPITICIAYFNNCLNPLFYGFLGKKFKKYFLQLLKYIPPTAKSHAGLSTKMSTLSYRPSDNMSSSAKKSASFFEVE

>  <PDB ID(s) of Target Chain>  (1) 


>  <UniProt (SwissProt) Recommended Name of Target Chain>  (1) 
Type-1 angiotensin II receptor B

>  <UniProt (SwissProt) Entry Name of Target Chain>  (1) 
AGTRB_RAT

>  <UniProt (SwissProt) Primary ID of Target Chain>  (1) 
P29089

>  <UniProt (SwissProt) Secondary ID(s) of Target Chain>  (1) 


>  <UniProt (SwissProt) Alternative ID(s) of Target Chain>  (1) 


>  <UniProt (TrEMBL) Submitted Name of Target Chain>  (1) 


>  <UniProt (TrEMBL) Entry Name of Target Chain>  (1) 


>  <UniProt (TrEMBL) Primary ID of Target Chain>  (1) 


>  <UniProt (TrEMBL) Secondary ID(s) of Target Chain>  (1) 


>  <UniProt (TrEMBL) Alternative ID(s) of Target Chain>  (1) 


$$$$
