
     RDKit          2D

 36 39  0  0  0  0  0  0  0  0999 V2000
    4.8641   -1.3464    0.0000 N   0  0  0  0  0  0  0  0  0  0  0  0
    5.5230   -0.8594    0.0000 C   0  0  0  0  0  0  0  0  0  0  0  0
    4.4401   -0.0859    0.0000 N   0  0  0  0  0  0  0  0  0  0  0  0
    4.1937   -0.8651    0.0000 C   0  0  0  0  0  0  0  0  0  0  0  0
    5.2651   -0.0745    0.0000 C   0  0  0  0  0  0  0  0  0  0  0  0
    6.3308   -1.0198    0.0000 N   0  0  0  0  0  0  0  0  0  0  0  0
    2.0167   -4.6578    0.0000 C   0  0  0  0  0  0  0  0  0  0  0  0
    2.0167   -3.8328    0.0000 O   0  0  0  0  0  0  0  0  0  0  0  0
    1.2948   -5.0703    0.0000 C   0  0  0  0  0  0  0  0  0  0  0  0
    5.8151    0.5328    0.0000 C   0  0  0  0  0  0  0  0  0  0  0  0
    2.6183   -5.1964    0.0000 C   0  0  0  0  0  0  0  0  0  0  0  0
    2.7328   -3.4203    0.0000 C   0  0  0  0  0  0  0  0  0  0  0  0
    4.8698   -2.1714    0.0000 C   0  0  0  0  0  0  0  0  0  0  0  0
    3.4433   -3.8328    0.0000 C   0  0  0  0  0  0  0  0  0  0  0  0
    6.8808   -0.4125    0.0000 C   0  0  0  0  0  0  0  0  0  0  0  0
    6.6172    0.3723    0.0000 C   0  0  0  0  0  0  0  0  0  0  0  0
    1.2948   -5.8839    0.0000 C   0  0  0  0  0  0  0  0  0  0  0  0
    4.1594   -2.5839    0.0000 C   0  0  0  0  0  0  0  0  0  0  0  0
    4.1594   -3.4203    0.0000 C   0  0  0  0  0  0  0  0  0  0  0  0
    3.5980   -5.1105    0.0000 O   0  0  0  0  0  0  0  0  0  0  0  0
    2.7328   -2.5953    0.0000 C   0  0  0  0  0  0  0  0  0  0  0  0
    2.9964   -6.1761    0.0000 O   0  0  0  0  0  0  0  0  0  0  0  0
    3.4433   -2.1714    0.0000 C   0  0  0  0  0  0  0  0  0  0  0  0
    3.4089   -1.1230    0.0000 C   0  0  0  0  0  0  0  0  0  0  0  0
    2.0167   -6.2964    0.0000 O   0  0  0  0  0  0  0  0  0  0  0  0
    0.5901   -4.6464    0.0000 C   0  0  0  0  0  0  0  0  0  0  0  0
    5.5516    1.3177    0.0000 C   0  0  0  0  0  0  0  0  0  0  0  0
    3.4261   -4.5089    0.0000 C   0  0  0  0  0  0  0  0  0  0  0  0
    7.6886   -0.5730    0.0000 C   0  0  0  0  0  0  0  0  0  0  0  0
    0.5901   -6.2964    0.0000 C   0  0  0  0  0  0  0  0  0  0  0  0
    2.0167   -7.1214    0.0000 C   0  0  0  0  0  0  0  0  0  0  0  0
    4.2453   -4.1995    0.0000 C   0  0  0  0  0  0  0  0  0  0  0  0
    2.7901   -0.5844    0.0000 C   0  0  0  0  0  0  0  0  0  0  0  0
   -0.1317   -5.0589    0.0000 C   0  0  0  0  0  0  0  0  0  0  0  0
    4.8870   -4.5433    0.0000 C   0  0  0  0  0  0  0  0  0  0  0  0
   -0.1317   -5.8839    0.0000 C   0  0  0  0  0  0  0  0  0  0  0  0
  2  1  1  0
  3  4  2  0
  4  1  1  0
  5  2  2  0
  6  2  1  0
  7  8  1  0
  8 12  1  0
  9  7  1  0
 10  5  1  0
 11  7  1  0
 12 21  2  0
 13  1  1  0
 14 19  2  0
 15  6  2  0
 16 15  1  0
 17  9  2  0
 18 13  1  0
 19 18  1  0
 20 11  2  0
 21 23  1  0
 22 11  1  0
 23 18  2  0
 24  4  1  0
 25 17  1  0
 26  9  1  0
 27 10  1  0
 28 14  1  0
 29 15  1  0
 30 17  1  0
 31 25  1  0
 32 28  1  0
 33 24  1  0
 34 26  2  0
 35 32  1  0
 36 34  1  0
  5  3  1  0
 12 14  1  0
 16 10  2  0
 36 30  2  0
M  END
>  <From>  (1) 
www.bindingDB.org

>  <BindingDB Reactant_set_id>  (1) 
50003624

>  <Ligand InChI>  (1) 
InChI=1S/C29H33N3O4/c1-6-10-21-16-20(17-32-25(7-2)31-26-18(3)15-19(4)30-28(26)32)13-14-23(21)36-27(29(33)34)22-11-8-9-12-24(22)35-5/h8-9,11-16,27H,6-7,10,17H2,1-5H3,(H,33,34)

>  <Ligand InChI Key>  (1) 
MBVFXDSKQKPYPC-UHFFFAOYSA-N

>  <BindingDB MonomerID>  (1) 
50284451

>  <BindingDB Ligand Name>  (1) 
CHEMBL279103::[4-(2-Ethyl-5,7-dimethyl-imidazo[4,5-b]pyridin-3-ylmethyl)-2-propyl-phenoxy]-(2-methoxy-phenyl)-acetic acid

>  <Target Name>  (1) 
Type-1 angiotensin II receptor

>  <Target Source Organism According to Curator or DataSource>  (1) 
Oryctolagus cuniculus

>  <Ki (nM)>  (1) 


>  <IC50 (nM)>  (1) 
 9.5

>  <Kd (nM)>  (1) 


>  <EC50 (nM)>  (1) 


>  <kon (M-1-s-1)>  (1) 


>  <koff (s-1)>  (1) 


>  <pH>  (1) 


>  <Temp C>  (1) 


>  <Curation/DataSource>  (1) 
ChEMBL

>  <Article DOI>  (1) 
10.1016/0960-894X(95)00185-V

>  <BindingDB Entry DOI>  (1) 
10.7270/Q2J67GV9

>  <PMID>  (1) 


>  <PubChem AID>  (1) 


>  <Patent Number>  (1) 


>  <Authors>  (1) 
Walsh, TF; Fitch, KJ; Chang, RS; Faust, KA; Chen, TB; Kivlighn, SD; Zingaro, GJ; Lotti, VJ; Siegl, PK; Patchett, AA; Greenlee, WJ

>  <Institution>  (1) 
TBA

>  <Link to Ligand in BindingDB>  (1) 
http://www.bindingdb.org/bind/chemsearch/marvin/MolStructure.jsp?monomerid=50284451

>  <Link to Ligand-Target Pair in BindingDB>  (1) 
http://www.bindingdb.org/jsp/dbsearch/PrimarySearch_ki.jsp?energyterm=kJ/mole&tag=r21&monomerid=50284451&enzyme=Type-1+angiotensin+II+receptor&column=ki&startPg=0&Increment=50&submit=Search

>  <Ligand HET ID in PDB>  (1) 


>  <PDB ID(s) for Ligand-Target Complex>  (1) 


>  <PubChem CID of Ligand>  (1) 
19385680

>  <PubChem SID of Ligand>  (1) 
104126108

>  <ChEBI ID of Ligand>  (1) 


>  <ChEMBL ID of Ligand>  (1) 
CHEMBL279103

>  <DrugBank ID of Ligand>  (1) 


>  <IUPHAR_GRAC ID of Ligand>  (1) 


>  <KEGG ID of Ligand>  (1) 


>  <ZINC ID of Ligand>  (1) 
ZINC36175949

>  <Number of Protein Chains in Target (bigger than 1 implies a multichain complex)>  (1) 
1

>  <BindingDB Target Chain Sequence>  (1) 
MMLNSSTEDGIKRIQDDCPKAGRHNYIFVMIPTLYSIIFVVGIFGNSLAVIVIYFYMKLKTVASVFLLNLALADLCFLLTLPLWAVYTAMEYRWPFGNYLCKIASASVSFNLYASVFLLTCLSIDRYLAIVHPMKSRLRRTMLVAKVTCIIIWLLAGLASLPAIIHRNVFFIENTNITVCAFHYESQNSTLPIGLGLTKNILGFLFPFLIILTSYTLIWKALKKAYEIQKNKPRNDDIFKIIMAIVLFFFFSWVPHQIFTFLDVLIQLGVIHDCRIADIVDTAMPITICIAYFNNCLNPLFYGFLGKKFKKYFLQLLKYIPPKAKSHSNLSTKMSTLSYRPSDNVSSSSKKPVPCFEVE

>  <PDB ID(s) of Target Chain>  (1) 
6DO1,6OS0,6OS1,6OS2

>  <UniProt (SwissProt) Recommended Name of Target Chain>  (1) 
Type-1 angiotensin II receptor

>  <UniProt (SwissProt) Entry Name of Target Chain>  (1) 
AGTR1_RABIT

>  <UniProt (SwissProt) Primary ID of Target Chain>  (1) 
P34976

>  <UniProt (SwissProt) Secondary ID(s) of Target Chain>  (1) 


>  <UniProt (SwissProt) Alternative ID(s) of Target Chain>  (1) 


>  <UniProt (TrEMBL) Submitted Name of Target Chain>  (1) 


>  <UniProt (TrEMBL) Entry Name of Target Chain>  (1) 


>  <UniProt (TrEMBL) Primary ID of Target Chain>  (1) 


>  <UniProt (TrEMBL) Secondary ID(s) of Target Chain>  (1) 


>  <UniProt (TrEMBL) Alternative ID(s) of Target Chain>  (1) 


$$$$
