
     RDKit          2D

 32 34  0  0  0  0  0  0  0  0999 V2000
    5.1375   -4.2542    0.0000 N   0  0  0  0  0  0  0  0  0  0  0  0
    4.3542   -3.6875    0.0000 C   0  0  0  0  0  0  0  0  0  0  0  0
    4.6542   -4.6125    0.0000 C   0  0  0  0  0  0  0  0  0  0  0  0
    4.1667   -4.2542    0.0000 N   0  0  0  0  0  0  0  0  0  0  0  0
    4.9542   -3.6875    0.0000 C   0  0  0  0  0  0  0  0  0  0  0  0
    4.0000   -3.2042    0.0000 C   0  0  0  0  0  0  0  0  0  0  0  0
    3.0000   -2.8167    0.0000 N   0  0  0  0  0  0  0  0  0  0  0  0
    3.4042   -3.2667    0.0000 C   0  0  0  0  0  0  0  0  0  0  0  0
    2.5167   -3.6542    0.0000 N   0  0  0  0  0  0  0  0  0  0  0  0
    2.4542   -3.0625    0.0000 C   0  0  0  0  0  0  0  0  0  0  0  0
    3.1000   -3.7792    0.0000 C   0  0  0  0  0  0  0  0  0  0  0  0
    5.4042   -1.4917    0.0000 C   0  0  0  0  0  0  0  0  0  0  0  0
    3.1250   -2.2292    0.0000 C   0  0  0  0  0  0  0  0  0  0  0  0
    4.6500   -5.2125    0.0000 O   0  0  0  0  0  0  0  0  0  0  0  0
    5.3042   -3.2042    0.0000 O   0  0  0  0  0  0  0  0  0  0  0  0
    4.8375   -1.6792    0.0000 C   0  0  0  0  0  0  0  0  0  0  0  0
    5.5292   -0.9042    0.0000 O   0  0  0  0  0  0  0  0  0  0  0  0
    4.7125   -2.2667    0.0000 C   0  0  0  0  0  0  0  0  0  0  0  0
    4.3875   -1.2750    0.0000 C   0  0  0  0  0  0  0  0  0  0  0  0
    3.6917   -2.0417    0.0000 C   0  0  0  0  0  0  0  0  0  0  0  0
    3.5917   -4.4417    0.0000 C   0  0  0  0  0  0  0  0  0  0  0  0
    5.8542   -1.8917    0.0000 O   0  0  0  0  0  0  0  0  0  0  0  0
    4.1417   -2.4500    0.0000 C   0  0  0  0  0  0  0  0  0  0  0  0
    3.8167   -1.4625    0.0000 C   0  0  0  0  0  0  0  0  0  0  0  0
    1.9292   -2.7625    0.0000 C   0  0  0  0  0  0  0  0  0  0  0  0
    5.7292   -2.4792    0.0000 C   0  0  0  0  0  0  0  0  0  0  0  0
    3.4667   -5.0292    0.0000 C   0  0  0  0  0  0  0  0  0  0  0  0
    1.9292   -2.1625    0.0000 C   0  0  0  0  0  0  0  0  0  0  0  0
    2.9000   -5.2167    0.0000 C   0  0  0  0  0  0  0  0  0  0  0  0
    1.4125   -1.8625    0.0000 C   0  0  0  0  0  0  0  0  0  0  0  0
    2.7750   -5.8042    0.0000 C   0  0  0  0  0  0  0  0  0  0  0  0
    1.4125   -1.2625    0.0000 C   0  0  0  0  0  0  0  0  0  0  0  0
  2  5  1  0
  3  1  1  0
  4  3  1  0
  5  1  1  0
  6  2  2  0
  7  8  1  0
  8  6  1  0
  9 11  1  0
 10  7  1  0
 11  8  2  0
 12 16  1  0
 13  7  1  0
 14  3  2  0
 15  5  2  0
 16 19  2  0
 17 12  2  0
 18 23  2  0
 19 24  1  0
 20 13  1  0
 21  4  1  0
 22 12  1  0
 23 20  1  0
 24 20  2  0
 25 10  1  0
 26 22  1  0
 27 21  1  0
 28 25  1  0
 29 27  1  0
 30 28  1  0
 31 29  1  0
 32 30  1  0
  4  2  1  0
 10  9  2  0
 18 16  1  0
M  END
>  <From>  (1) 
www.bindingDB.org

>  <BindingDB Reactant_set_id>  (1) 
51186097

>  <Ligand InChI>  (1) 
InChI=1S/C24H30N4O4/c1-4-6-8-21-25-15-19(14-20-22(29)26-24(31)27(20)13-7-5-2)28(21)16-17-9-11-18(12-10-17)23(30)32-3/h9-12,14-15H,4-8,13,16H2,1-3H3,(H,26,29,31)/b20-14-

>  <Ligand InChI Key>  (1) 
KDVNHNAVYJGVGP-ZHZULCJRSA-N

>  <BindingDB MonomerID>  (1) 
50487714

>  <BindingDB Ligand Name>  (1) 
CHEMBL121854

>  <Target Name>  (1) 
Type-1 angiotensin II receptor

>  <Target Source Organism According to Curator or DataSource>  (1) 
Homo sapiens

>  <Ki (nM)>  (1) 


>  <IC50 (nM)>  (1) 
 3.5

>  <Kd (nM)>  (1) 


>  <EC50 (nM)>  (1) 


>  <kon (M-1-s-1)>  (1) 


>  <koff (s-1)>  (1) 


>  <pH>  (1) 


>  <Temp C>  (1) 


>  <Curation/DataSource>  (1) 
ChEMBL

>  <Article DOI>  (1) 
10.1007/s00044-009-9205-9

>  <BindingDB Entry DOI>  (1) 
10.7270/Q2CC13K2

>  <PMID>  (1) 


>  <PubChem AID>  (1) 


>  <Patent Number>  (1) 


>  <Authors>  (1) 
n/a

>  <Institution>  (1) 
n/a

>  <Link to Ligand in BindingDB>  (1) 
http://www.bindingdb.org/bind/chemsearch/marvin/MolStructure.jsp?monomerid=50487714

>  <Link to Ligand-Target Pair in BindingDB>  (1) 
http://www.bindingdb.org/jsp/dbsearch/PrimarySearch_ki.jsp?energyterm=kJ/mole&tag=r21&monomerid=50487714&enzyme=Type-1+angiotensin+II+receptor&column=ki&startPg=0&Increment=50&submit=Search

>  <Ligand HET ID in PDB>  (1) 


>  <PDB ID(s) for Ligand-Target Complex>  (1) 


>  <PubChem CID of Ligand>  (1) 
10343090

>  <PubChem SID of Ligand>  (1) 
433954979

>  <ChEBI ID of Ligand>  (1) 


>  <ChEMBL ID of Ligand>  (1) 


>  <DrugBank ID of Ligand>  (1) 


>  <IUPHAR_GRAC ID of Ligand>  (1) 


>  <KEGG ID of Ligand>  (1) 


>  <ZINC ID of Ligand>  (1) 


>  <Number of Protein Chains in Target (bigger than 1 implies a multichain complex)>  (1) 
1

>  <BindingDB Target Chain Sequence>  (1) 
MILNSSTEDGIKRIQDDCPKAGRHNYIFVMIPTLYSIIFVVGIFGNSLVVIVIYFYMKLKTVASVFLLNLALADLCFLLTLPLWAVYTAMEYRWPFGNYLCKIASASVSFNLYASVFLLTCLSIDRYLAIVHPMKSRLRRTMLVAKVTCIIIWLLAGLASLPAIIHRNVFFIENTNITVCAFHYESQNSTLPIGLGLTKNILGFLFPFLIILTSYTLIWKALKKAYEIQKNKPRNDDIFKIIMAIVLFFFFSWIPHQIFTFLDVLIQLGIIRDCRIADIVDTAMPITICIAYFNNCLNPLFYGFLGKKFKRYFLQLLKYIPPKAKSHSNLSTKMSTLSYRPSDNVSSSTKKPAPCFEVE

>  <PDB ID(s) of Target Chain>  (1) 
6DO1,6OS0,6OS1,6OS2

>  <UniProt (SwissProt) Recommended Name of Target Chain>  (1) 
Type-1 angiotensin II receptor

>  <UniProt (SwissProt) Entry Name of Target Chain>  (1) 
AGTR1_HUMAN

>  <UniProt (SwissProt) Primary ID of Target Chain>  (1) 
P30556

>  <UniProt (SwissProt) Secondary ID(s) of Target Chain>  (1) 
Q13725 Q8TBK4

>  <UniProt (SwissProt) Alternative ID(s) of Target Chain>  (1) 


>  <UniProt (TrEMBL) Submitted Name of Target Chain>  (1) 


>  <UniProt (TrEMBL) Entry Name of Target Chain>  (1) 


>  <UniProt (TrEMBL) Primary ID of Target Chain>  (1) 


>  <UniProt (TrEMBL) Secondary ID(s) of Target Chain>  (1) 


>  <UniProt (TrEMBL) Alternative ID(s) of Target Chain>  (1) 


$$$$
