
     RDKit          2D

 34 38  0  0  0  0  0  0  0  0999 V2000
    7.5629   -1.5935    0.0000 N   0  0  0  0  0  0  0  0  0  0  0  0
    6.9705   -1.0137    0.0000 C   0  0  0  0  0  0  0  0  0  0  0  0
    7.3376   -0.2795    0.0000 N   0  0  0  0  0  0  0  0  0  0  0  0
    3.8461   -2.3152    0.0000 C   0  0  0  0  0  0  0  0  0  0  0  0
    3.2788   -1.7187    0.0000 N   0  0  0  0  0  0  0  0  0  0  0  0
    8.2887   -1.2139    0.0000 C   0  0  0  0  0  0  0  0  0  0  0  0
    9.0646   -1.4934    0.0000 C   0  0  0  0  0  0  0  0  0  0  0  0
    4.5845   -1.9564    0.0000 N   0  0  0  0  0  0  0  0  0  0  0  0
    8.1511   -0.4005    0.0000 C   0  0  0  0  0  0  0  0  0  0  0  0
    3.6667   -1.0011    0.0000 C   0  0  0  0  0  0  0  0  0  0  0  0
    3.7335   -3.1328    0.0000 C   0  0  0  0  0  0  0  0  0  0  0  0
    4.4718   -1.1305    0.0000 O   0  0  0  0  0  0  0  0  0  0  0  0
    9.2023   -2.3068    0.0000 C   0  0  0  0  0  0  0  0  0  0  0  0
    4.3842   -3.6459    0.0000 C   0  0  0  0  0  0  0  0  0  0  0  0
    7.4461   -2.4153    0.0000 C   0  0  0  0  0  0  0  0  0  0  0  0
    5.1476   -3.3413    0.0000 C   0  0  0  0  0  0  0  0  0  0  0  0
    6.1488   -1.1305    0.0000 N   0  0  0  0  0  0  0  0  0  0  0  0
    3.2913   -0.2503    0.0000 O   0  0  0  0  0  0  0  0  0  0  0  0
    8.5766   -2.8325    0.0000 O   0  0  0  0  0  0  0  0  0  0  0  0
    5.2602   -2.5196    0.0000 C   0  0  0  0  0  0  0  0  0  0  0  0
    5.7984   -3.8461    0.0000 C   0  0  0  0  0  0  0  0  0  0  0  0
    6.6827   -2.7198    0.0000 C   0  0  0  0  0  0  0  0  0  0  0  0
    9.9782   -2.5947    0.0000 O   0  0  0  0  0  0  0  0  0  0  0  0
    9.6986   -0.9678    0.0000 C   0  0  0  0  0  0  0  0  0  0  0  0
    6.5617   -3.5416    0.0000 C   0  0  0  0  0  0  0  0  0  0  0  0
    6.0319   -2.2067    0.0000 C   0  0  0  0  0  0  0  0  0  0  0  0
    8.7768    0.1251    0.0000 C   0  0  0  0  0  0  0  0  0  0  0  0
    2.9659   -3.4457    0.0000 C   0  0  0  0  0  0  0  0  0  0  0  0
    4.2674   -4.4676    0.0000 C   0  0  0  0  0  0  0  0  0  0  0  0
    9.5527   -0.1544    0.0000 C   0  0  0  0  0  0  0  0  0  0  0  0
    5.8484   -1.9022    0.0000 C   0  0  0  0  0  0  0  0  0  0  0  0
    3.5040   -4.7722    0.0000 C   0  0  0  0  0  0  0  0  0  0  0  0
    2.8450   -4.2591    0.0000 C   0  0  0  0  0  0  0  0  0  0  0  0
    5.0308   -2.0190    0.0000 C   0  0  0  0  0  0  0  0  0  0  0  0
  2  1  1  0
  3  2  2  0
  4 11  1  0
  5  4  2  0
  6  1  1  0
  7  6  2  0
  8  4  1  0
  9  6  1  0
 10  5  1  0
 11 14  1  0
 12  8  1  0
 13  7  1  0
 14 16  1  0
 15  1  1  0
 16 20  2  0
 17  2  1  0
 18 10  2  0
 19 13  2  0
 20 26  1  0
 21 25  2  0
 22 15  1  0
 23 13  1  0
 24  7  1  0
 25 22  1  0
 26 22  2  0
 27  9  2  0
 28 11  2  0
 29 14  2  0
 30 27  1  0
 31 17  1  0
 32 29  1  0
 33 32  2  0
 34 31  1  0
  3  9  1  0
 21 16  1  0
 30 24  2  0
 33 28  1  0
 10 12  1  0
M  END
>  <From>  (1) 
www.bindingDB.org

>  <BindingDB Reactant_set_id>  (1) 
50472813

>  <Ligand InChI>  (1) 
InChI=1S/C25H21N5O4/c1-2-26-24-27-20-9-5-8-19(23(31)32)21(20)30(24)14-15-10-12-16(13-11-15)17-6-3-4-7-18(17)22-28-25(33)34-29-22/h3-13H,2,14H2,1H3,(H,26,27)(H,31,32)(H,28,29,33)

>  <Ligand InChI Key>  (1) 
NHPIMBXSLCZMKF-UHFFFAOYSA-N

>  <BindingDB MonomerID>  (1) 
50285002

>  <BindingDB Ligand Name>  (1) 
2-Ethylamino-3-[2'-(5-oxo-4,5-dihydro-[1,2,4]oxadiazol-3-yl)-biphenyl-4-ylmethyl]-3H-benzoimidazole-4-carboxylic acid::CHEMBL292430

>  <Target Name>  (1) 
Type-1 angiotensin II receptor

>  <Target Source Organism According to Curator or DataSource>  (1) 
Bos taurus

>  <Ki (nM)>  (1) 


>  <IC50 (nM)>  (1) 
 42

>  <Kd (nM)>  (1) 


>  <EC50 (nM)>  (1) 


>  <kon (M-1-s-1)>  (1) 


>  <koff (s-1)>  (1) 


>  <pH>  (1) 


>  <Temp C>  (1) 


>  <Curation/DataSource>  (1) 
ChEMBL

>  <Article DOI>  (1) 
10.1016/0960-894X(95)00319-O

>  <BindingDB Entry DOI>  (1) 
10.7270/Q26M36SM

>  <PMID>  (1) 


>  <PubChem AID>  (1) 


>  <Patent Number>  (1) 


>  <Authors>  (1) 
Kohara, Y; Imamiya, E; Kubo, K; Wada, T; Inada, Y; Naka, T

>  <Institution>  (1) 
TBA

>  <Link to Ligand in BindingDB>  (1) 
http://www.bindingdb.org/bind/chemsearch/marvin/MolStructure.jsp?monomerid=50285002

>  <Link to Ligand-Target Pair in BindingDB>  (1) 
http://www.bindingdb.org/jsp/dbsearch/PrimarySearch_ki.jsp?energyterm=kJ/mole&tag=r21&monomerid=50285002&enzyme=Type-1+angiotensin+II+receptor&column=ki&startPg=0&Increment=50&submit=Search

>  <Ligand HET ID in PDB>  (1) 


>  <PDB ID(s) for Ligand-Target Complex>  (1) 


>  <PubChem CID of Ligand>  (1) 
44299593

>  <PubChem SID of Ligand>  (1) 
104126573

>  <ChEBI ID of Ligand>  (1) 


>  <ChEMBL ID of Ligand>  (1) 
CHEMBL292430

>  <DrugBank ID of Ligand>  (1) 


>  <IUPHAR_GRAC ID of Ligand>  (1) 


>  <KEGG ID of Ligand>  (1) 


>  <ZINC ID of Ligand>  (1) 
ZINC29555379

>  <Number of Protein Chains in Target (bigger than 1 implies a multichain complex)>  (1) 
1

>  <BindingDB Target Chain Sequence>  (1) 
MILNSSTEDGIKRIQDDCPKAGRHNYIFIMIPTLYSIIFVVGIFGNSLVVIVIYFYMKLKTVASVFLLNLALADLCFLLTLPLWAVYTAMEYRWPFGNYLCKIASASVSFNLYASVFLLTCLSIDRYLAIVHPMKSRLRRTMLVAKVTCIIIWLLAGLASLPTIIHRNVFFIENTNITVCAFHYESQNSTLPVGLGLTKNILGFLFPFLIILTSYTLIWKTLKKAYEIQKNKPRKDDIFKIILAIVLFFFFSWVPHQIFTFMDVLIQLGLIRDCKIEDIVDTAMPITICLAYFNNCLNPLFYGFLGKKFKKYFLQLLKYIPPKAKSHSNLSTKMSTLSYRPSENGNSSTKKPAPCIEVE

>  <PDB ID(s) of Target Chain>  (1) 


>  <UniProt (SwissProt) Recommended Name of Target Chain>  (1) 
Type-1 angiotensin II receptor

>  <UniProt (SwissProt) Entry Name of Target Chain>  (1) 
AGTR1_BOVIN

>  <UniProt (SwissProt) Primary ID of Target Chain>  (1) 
P25104

>  <UniProt (SwissProt) Secondary ID(s) of Target Chain>  (1) 


>  <UniProt (SwissProt) Alternative ID(s) of Target Chain>  (1) 


>  <UniProt (TrEMBL) Submitted Name of Target Chain>  (1) 


>  <UniProt (TrEMBL) Entry Name of Target Chain>  (1) 


>  <UniProt (TrEMBL) Primary ID of Target Chain>  (1) 


>  <UniProt (TrEMBL) Secondary ID(s) of Target Chain>  (1) 


>  <UniProt (TrEMBL) Alternative ID(s) of Target Chain>  (1) 


$$$$
