
     RDKit          2D

 32 36  0  0  0  0  0  0  0  0999 V2000
    5.0207   -9.8995    0.0000 N   0  0  0  0  0  0  0  0  0  0  0  0
    5.6962   -9.4241    0.0000 C   0  0  0  0  0  0  0  0  0  0  0  0
    4.6203   -8.6318    0.0000 N   0  0  0  0  0  0  0  0  0  0  0  0
    4.3576   -9.4116    0.0000 C   0  0  0  0  0  0  0  0  0  0  0  0
    5.4543   -8.6360    0.0000 C   0  0  0  0  0  0  0  0  0  0  0  0
    8.5735  -11.1755    0.0000 C   0  0  0  0  0  0  0  0  0  0  0  0
    8.1606   -9.8995    0.0000 N   0  0  0  0  0  0  0  0  0  0  0  0
    7.9062  -10.6834    0.0000 N   0  0  0  0  0  0  0  0  0  0  0  0
    8.9863   -9.9078    0.0000 N   0  0  0  0  0  0  0  0  0  0  0  0
    9.2365  -10.6876    0.0000 N   0  0  0  0  0  0  0  0  0  0  0  0
    8.5693  -12.0012    0.0000 C   0  0  0  0  0  0  0  0  0  0  0  0
    7.8479  -12.4015    0.0000 C   0  0  0  0  0  0  0  0  0  0  0  0
    5.0165  -10.7252    0.0000 C   0  0  0  0  0  0  0  0  0  0  0  0
    7.1431  -11.9886    0.0000 C   0  0  0  0  0  0  0  0  0  0  0  0
    6.4218   -9.7577    0.0000 O   0  0  0  0  0  0  0  0  0  0  0  0
    6.1966   -7.1681    0.0000 S   0  0  0  0  0  0  0  0  0  0  0  0
    6.2716   -8.5985    0.0000 C   0  0  0  0  0  0  0  0  0  0  0  0
    5.0039   -7.9563    0.0000 C   0  0  0  0  0  0  0  0  0  0  0  0
    6.4218  -12.3890    0.0000 C   0  0  0  0  0  0  0  0  0  0  0  0
    7.1473  -11.1588    0.0000 C   0  0  0  0  0  0  0  0  0  0  0  0
    5.7212  -11.1505    0.0000 C   0  0  0  0  0  0  0  0  0  0  0  0
    3.5695   -9.6618    0.0000 C   0  0  0  0  0  0  0  0  0  0  0  0
    6.4343  -10.7377    0.0000 C   0  0  0  0  0  0  0  0  0  0  0  0
    5.7087  -11.9761    0.0000 C   0  0  0  0  0  0  0  0  0  0  0  0
    6.6469   -7.8604    0.0000 C   0  0  0  0  0  0  0  0  0  0  0  0
    5.3709   -7.2182    0.0000 C   0  0  0  0  0  0  0  0  0  0  0  0
    9.2740  -12.4140    0.0000 C   0  0  0  0  0  0  0  0  0  0  0  0
    7.8437  -13.2354    0.0000 C   0  0  0  0  0  0  0  0  0  0  0  0
    2.9648   -9.0989    0.0000 C   0  0  0  0  0  0  0  0  0  0  0  0
    8.5567  -13.6525    0.0000 C   0  0  0  0  0  0  0  0  0  0  0  0
    9.2740  -13.2479    0.0000 C   0  0  0  0  0  0  0  0  0  0  0  0
    2.1767   -9.3491    0.0000 C   0  0  0  0  0  0  0  0  0  0  0  0
  2  1  1  0
  3  4  2  0
  4  1  1  0
  5  2  1  0
  6 11  1  0
  7  8  1  0
  8  6  1  0
  9 10  1  0
 10  6  2  0
 11 12  1  0
 12 14  1  0
 13  1  1  0
 14 19  2  0
 15  2  2  0
 16 26  1  0
 17  5  1  0
 18  5  1  0
 19 24  1  0
 20 23  2  0
 21 13  1  0
 22  4  1  0
 23 21  1  0
 24 21  2  0
 25 17  1  0
 26 18  1  0
 27 11  2  0
 28 12  2  0
 29 22  1  0
 30 28  1  0
 31 30  2  0
 32 29  1  0
  5  3  1  0
 14 20  1  0
 25 16  1  0
 27 31  1  0
  9  7  2  0
M  END
>  <From>  (1) 
www.bindingDB.org

>  <BindingDB Reactant_set_id>  (1) 
50468248

>  <Ligand InChI>  (1) 
InChI=1S/C24H26N6OS/c1-2-5-21-25-24(12-14-32-15-13-24)23(31)30(21)16-17-8-10-18(11-9-17)19-6-3-4-7-20(19)22-26-28-29-27-22/h3-4,6-11H,2,5,12-16H2,1H3,(H,26,27,28,29)

>  <Ligand InChI Key>  (1) 
QRRBUEQLWDWBFT-UHFFFAOYSA-N

>  <BindingDB MonomerID>  (1) 
50282732

>  <BindingDB Ligand Name>  (1) 
2-Propyl-3-[2'-(1H-tetrazol-5-yl)-biphenyl-4-ylmethyl]-8-thia-1,3-diaza-spiro[4.5]dec-1-en-4-one::CHEMBL289105

>  <Target Name>  (1) 
Type-1 angiotensin II receptor

>  <Target Source Organism According to Curator or DataSource>  (1) 
Homo sapiens

>  <Ki (nM)>  (1) 


>  <IC50 (nM)>  (1) 
 2

>  <Kd (nM)>  (1) 


>  <EC50 (nM)>  (1) 


>  <kon (M-1-s-1)>  (1) 


>  <koff (s-1)>  (1) 


>  <pH>  (1) 


>  <Temp C>  (1) 


>  <Curation/DataSource>  (1) 
ChEMBL

>  <Article DOI>  (1) 
10.1016/S0960-894X(01)80526-6

>  <BindingDB Entry DOI>  (1) 
10.7270/Q22V2G29

>  <PMID>  (1) 


>  <PubChem AID>  (1) 


>  <Patent Number>  (1) 


>  <Authors>  (1) 
Quan, ML; DeLucca, I; Boswell, GA; Chiu, AT; Wong, PC; Wexler, RR; Timmermans, PB

>  <Institution>  (1) 
TBA

>  <Link to Ligand in BindingDB>  (1) 
http://www.bindingdb.org/bind/chemsearch/marvin/MolStructure.jsp?monomerid=50282732

>  <Link to Ligand-Target Pair in BindingDB>  (1) 
http://www.bindingdb.org/jsp/dbsearch/PrimarySearch_ki.jsp?energyterm=kJ/mole&tag=r21&monomerid=50282732&enzyme=Type-1+angiotensin+II+receptor&column=ki&startPg=0&Increment=50&submit=Search

>  <Ligand HET ID in PDB>  (1) 


>  <PDB ID(s) for Ligand-Target Complex>  (1) 


>  <PubChem CID of Ligand>  (1) 
44285372

>  <PubChem SID of Ligand>  (1) 
104124406

>  <ChEBI ID of Ligand>  (1) 


>  <ChEMBL ID of Ligand>  (1) 
CHEMBL289105

>  <DrugBank ID of Ligand>  (1) 


>  <IUPHAR_GRAC ID of Ligand>  (1) 


>  <KEGG ID of Ligand>  (1) 


>  <ZINC ID of Ligand>  (1) 
ZINC29314845

>  <Number of Protein Chains in Target (bigger than 1 implies a multichain complex)>  (1) 
1

>  <BindingDB Target Chain Sequence>  (1) 
MILNSSTEDGIKRIQDDCPKAGRHNYIFVMIPTLYSIIFVVGIFGNSLVVIVIYFYMKLKTVASVFLLNLALADLCFLLTLPLWAVYTAMEYRWPFGNYLCKIASASVSFNLYASVFLLTCLSIDRYLAIVHPMKSRLRRTMLVAKVTCIIIWLLAGLASLPAIIHRNVFFIENTNITVCAFHYESQNSTLPIGLGLTKNILGFLFPFLIILTSYTLIWKALKKAYEIQKNKPRNDDIFKIIMAIVLFFFFSWIPHQIFTFLDVLIQLGIIRDCRIADIVDTAMPITICIAYFNNCLNPLFYGFLGKKFKRYFLQLLKYIPPKAKSHSNLSTKMSTLSYRPSDNVSSSTKKPAPCFEVE

>  <PDB ID(s) of Target Chain>  (1) 
6DO1,6OS0,6OS1,6OS2

>  <UniProt (SwissProt) Recommended Name of Target Chain>  (1) 
Type-1 angiotensin II receptor

>  <UniProt (SwissProt) Entry Name of Target Chain>  (1) 
AGTR1_HUMAN

>  <UniProt (SwissProt) Primary ID of Target Chain>  (1) 
P30556

>  <UniProt (SwissProt) Secondary ID(s) of Target Chain>  (1) 
Q13725 Q8TBK4

>  <UniProt (SwissProt) Alternative ID(s) of Target Chain>  (1) 


>  <UniProt (TrEMBL) Submitted Name of Target Chain>  (1) 


>  <UniProt (TrEMBL) Entry Name of Target Chain>  (1) 


>  <UniProt (TrEMBL) Primary ID of Target Chain>  (1) 


>  <UniProt (TrEMBL) Secondary ID(s) of Target Chain>  (1) 


>  <UniProt (TrEMBL) Alternative ID(s) of Target Chain>  (1) 


$$$$
