
     RDKit          2D

 35 39  0  0  0  0  0  0  0  0999 V2000
    1.5870  -11.2922    0.0000 N   0  0  0  0  0  0  0  0  0  0  0  0
    2.3776  -11.0344    0.0000 C   0  0  0  0  0  0  0  0  0  0  0  0
    1.5812   -9.9516    0.0000 N   0  0  0  0  0  0  0  0  0  0  0  0
    1.1000  -10.6219    0.0000 C   0  0  0  0  0  0  0  0  0  0  0  0
    4.8870  -14.4261    0.0000 C   0  0  0  0  0  0  0  0  0  0  0  0
    3.0823  -11.4469    0.0000 C   0  0  0  0  0  0  0  0  0  0  0  0
    4.8183  -13.0969    0.0000 N   0  0  0  0  0  0  0  0  0  0  0  0
    4.3714  -13.7844    0.0000 N   0  0  0  0  0  0  0  0  0  0  0  0
    5.6203  -13.3203    0.0000 N   0  0  0  0  0  0  0  0  0  0  0  0
    2.3719  -10.1980    0.0000 C   0  0  0  0  0  0  0  0  0  0  0  0
    5.6547  -14.1339    0.0000 N   0  0  0  0  0  0  0  0  0  0  0  0
    4.6636  -15.2281    0.0000 C   0  0  0  0  0  0  0  0  0  0  0  0
    3.0995  -12.1401    0.0000 C   0  0  0  0  0  0  0  0  0  0  0  0
    3.8672  -15.4230    0.0000 C   0  0  0  0  0  0  0  0  0  0  0  0
    1.5698  -13.0625    0.0000 C   0  0  0  0  0  0  0  0  0  0  0  0
    3.2886  -14.8386    0.0000 C   0  0  0  0  0  0  0  0  0  0  0  0
    2.4636  -12.5183    0.0000 O   0  0  0  0  0  0  0  0  0  0  0  0
    3.5980  -14.0995    0.0000 C   0  0  0  0  0  0  0  0  0  0  0  0
    2.4922  -15.0391    0.0000 C   0  0  0  0  0  0  0  0  0  0  0  0
    2.1484  -13.6526    0.0000 C   0  0  0  0  0  0  0  0  0  0  0  0
    3.8156  -12.4151    0.0000 O   0  0  0  0  0  0  0  0  0  0  0  0
    3.8042  -11.0344    0.0000 C   0  0  0  0  0  0  0  0  0  0  0  0
    0.2750  -10.6276    0.0000 C   0  0  0  0  0  0  0  0  0  0  0  0
    2.9448  -13.4464    0.0000 C   0  0  0  0  0  0  0  0  0  0  0  0
    1.9136  -14.4433    0.0000 C   0  0  0  0  0  0  0  0  0  0  0  0
    3.0823   -9.7855    0.0000 C   0  0  0  0  0  0  0  0  0  0  0  0
    5.2422  -15.8125    0.0000 C   0  0  0  0  0  0  0  0  0  0  0  0
    3.6437  -16.2250    0.0000 C   0  0  0  0  0  0  0  0  0  0  0  0
    3.8042  -10.1980    0.0000 C   0  0  0  0  0  0  0  0  0  0  0  0
   -0.1489   -9.9058    0.0000 C   0  0  0  0  0  0  0  0  0  0  0  0
   -1.3864   -9.1953    0.0000 C   0  0  0  0  0  0  0  0  0  0  0  0
   -0.9739   -9.9058    0.0000 C   0  0  0  0  0  0  0  0  0  0  0  0
    4.2167  -16.8151    0.0000 C   0  0  0  0  0  0  0  0  0  0  0  0
    5.0187  -16.6089    0.0000 C   0  0  0  0  0  0  0  0  0  0  0  0
   -2.2114   -9.1953    0.0000 C   0  0  0  0  0  0  0  0  0  0  0  0
  2  1  1  0
  3  4  2  0
  4  1  1  0
  5 12  1  0
  6  2  1  0
  7  8  1  0
  8  5  1  0
  9 11  1  0
 10  2  2  0
 11  5  2  0
 12 14  1  0
 13  6  1  0
 14 16  1  0
 15  1  1  0
 16 19  2  0
 17 13  2  0
 18 24  2  0
 19 25  1  0
 20 15  1  0
 21 13  1  0
 22  6  2  0
 23  4  1  0
 24 20  1  0
 25 20  2  0
 26 10  1  0
 27 12  2  0
 28 14  2  0
 29 26  2  0
 30 23  1  0
 31 32  1  0
 32 30  1  0
 33 28  1  0
 34 33  2  0
 35 31  1  0
 10  3  1  0
 16 18  1  0
 22 29  1  0
 34 27  1  0
  9  7  2  0
M  END
>  <From>  (1) 
www.bindingDB.org

>  <BindingDB Reactant_set_id>  (1) 
50764774

>  <Ligand InChI>  (1) 
InChI=1S/C27H26N6O2/c1-2-3-4-12-24-28-23-11-7-10-22(27(34)35)25(23)33(24)17-18-13-15-19(16-14-18)20-8-5-6-9-21(20)26-29-31-32-30-26/h5-11,13-16H,2-4,12,17H2,1H3,(H,34,35)(H,29,30,31,32)

>  <Ligand InChI Key>  (1) 
UDTXFQIFKYJPKN-UHFFFAOYSA-N

>  <BindingDB MonomerID>  (1) 
50044376

>  <BindingDB Ligand Name>  (1) 
2-Pentyl-3-[2'-(1H-tetrazol-5-yl)-biphenyl-4-ylmethyl]-3H-benzoimidazole-4-carboxylic acid::CHEMBL68516

>  <Target Name>  (1) 
Type-1 angiotensin II receptor

>  <Target Source Organism According to Curator or DataSource>  (1) 
Bos taurus

>  <Ki (nM)>  (1) 


>  <IC50 (nM)>  (1) 
 560

>  <Kd (nM)>  (1) 


>  <EC50 (nM)>  (1) 


>  <kon (M-1-s-1)>  (1) 


>  <koff (s-1)>  (1) 


>  <pH>  (1) 


>  <Temp C>  (1) 


>  <Curation/DataSource>  (1) 
ChEMBL

>  <Article DOI>  (1) 
10.1021/jm00067a016

>  <BindingDB Entry DOI>  (1) 
10.7270/Q20Z73X8

>  <PMID>  (1) 
8340921

>  <PubChem AID>  (1) 


>  <Patent Number>  (1) 


>  <Authors>  (1) 
Kubo, K; Kohara, Y; Imamiya, E; Sugiura, Y; Inada, Y; Furukawa, Y; Nishikawa, K; Naka, T

>  <Institution>  (1) 
Takeda Chemical Industries, Ltd

>  <Link to Ligand in BindingDB>  (1) 
http://www.bindingdb.org/bind/chemsearch/marvin/MolStructure.jsp?monomerid=50044376

>  <Link to Ligand-Target Pair in BindingDB>  (1) 
http://www.bindingdb.org/jsp/dbsearch/PrimarySearch_ki.jsp?energyterm=kJ/mole&tag=r21&monomerid=50044376&enzyme=Type-1+angiotensin+II+receptor&column=ki&startPg=0&Increment=50&submit=Search

>  <Ligand HET ID in PDB>  (1) 


>  <PDB ID(s) for Ligand-Target Complex>  (1) 


>  <PubChem CID of Ligand>  (1) 
15654747

>  <PubChem SID of Ligand>  (1) 
103975630

>  <ChEBI ID of Ligand>  (1) 


>  <ChEMBL ID of Ligand>  (1) 
CHEMBL68516

>  <DrugBank ID of Ligand>  (1) 


>  <IUPHAR_GRAC ID of Ligand>  (1) 


>  <KEGG ID of Ligand>  (1) 


>  <ZINC ID of Ligand>  (1) 
ZINC13832272

>  <Number of Protein Chains in Target (bigger than 1 implies a multichain complex)>  (1) 
1

>  <BindingDB Target Chain Sequence>  (1) 
MILNSSTEDGIKRIQDDCPKAGRHNYIFIMIPTLYSIIFVVGIFGNSLVVIVIYFYMKLKTVASVFLLNLALADLCFLLTLPLWAVYTAMEYRWPFGNYLCKIASASVSFNLYASVFLLTCLSIDRYLAIVHPMKSRLRRTMLVAKVTCIIIWLLAGLASLPTIIHRNVFFIENTNITVCAFHYESQNSTLPVGLGLTKNILGFLFPFLIILTSYTLIWKTLKKAYEIQKNKPRKDDIFKIILAIVLFFFFSWVPHQIFTFMDVLIQLGLIRDCKIEDIVDTAMPITICLAYFNNCLNPLFYGFLGKKFKKYFLQLLKYIPPKAKSHSNLSTKMSTLSYRPSENGNSSTKKPAPCIEVE

>  <PDB ID(s) of Target Chain>  (1) 


>  <UniProt (SwissProt) Recommended Name of Target Chain>  (1) 
Type-1 angiotensin II receptor

>  <UniProt (SwissProt) Entry Name of Target Chain>  (1) 
AGTR1_BOVIN

>  <UniProt (SwissProt) Primary ID of Target Chain>  (1) 
P25104

>  <UniProt (SwissProt) Secondary ID(s) of Target Chain>  (1) 


>  <UniProt (SwissProt) Alternative ID(s) of Target Chain>  (1) 


>  <UniProt (TrEMBL) Submitted Name of Target Chain>  (1) 


>  <UniProt (TrEMBL) Entry Name of Target Chain>  (1) 


>  <UniProt (TrEMBL) Primary ID of Target Chain>  (1) 


>  <UniProt (TrEMBL) Secondary ID(s) of Target Chain>  (1) 


>  <UniProt (TrEMBL) Alternative ID(s) of Target Chain>  (1) 


$$$$
