
     RDKit          2D

 35 39  0  0  0  0  0  0  0  0999 V2000
    3.7202   -5.3152    0.0000 N   0  0  0  0  0  0  0  0  0  0  0  0
    4.5010   -5.0521    0.0000 C   0  0  0  0  0  0  0  0  0  0  0  0
    3.7119   -3.9749    0.0000 N   0  0  0  0  0  0  0  0  0  0  0  0
    4.5010   -4.2254    0.0000 C   0  0  0  0  0  0  0  0  0  0  0  0
    5.2150   -5.4655    0.0000 C   0  0  0  0  0  0  0  0  0  0  0  0
    3.2317   -4.6471    0.0000 C   0  0  0  0  0  0  0  0  0  0  0  0
    6.5928   -9.2734    0.0000 C   0  0  0  0  0  0  0  0  0  0  0  0
    6.8684   -7.9665    0.0000 N   0  0  0  0  0  0  0  0  0  0  0  0
    6.2546   -8.5218    0.0000 N   0  0  0  0  0  0  0  0  0  0  0  0
    7.5824   -8.3798    0.0000 N   0  0  0  0  0  0  0  0  0  0  0  0
    5.9373   -5.0521    0.0000 N   0  0  0  0  0  0  0  0  0  0  0  0
    7.4153   -9.1857    0.0000 N   0  0  0  0  0  0  0  0  0  0  0  0
    6.1795   -9.9874    0.0000 C   0  0  0  0  0  0  0  0  0  0  0  0
    5.2233   -6.3005    0.0000 C   0  0  0  0  0  0  0  0  0  0  0  0
    5.3528   -9.9874    0.0000 C   0  0  0  0  0  0  0  0  0  0  0  0
    5.2150   -3.8121    0.0000 C   0  0  0  0  0  0  0  0  0  0  0  0
    3.7202   -7.1314    0.0000 C   0  0  0  0  0  0  0  0  0  0  0  0
    5.9373   -4.2254    0.0000 C   0  0  0  0  0  0  0  0  0  0  0  0
    4.9394   -9.2734    0.0000 C   0  0  0  0  0  0  0  0  0  0  0  0
    5.9373   -6.7139    0.0000 O   0  0  0  0  0  0  0  0  0  0  0  0
    5.3528   -8.5594    0.0000 C   0  0  0  0  0  0  0  0  0  0  0  0
    4.1210   -9.2734    0.0000 C   0  0  0  0  0  0  0  0  0  0  0  0
    4.1252   -7.8454    0.0000 C   0  0  0  0  0  0  0  0  0  0  0  0
    4.5010   -6.7139    0.0000 O   0  0  0  0  0  0  0  0  0  0  0  0
    2.4050   -4.6513    0.0000 C   0  0  0  0  0  0  0  0  0  0  0  0
    4.9477   -7.8454    0.0000 C   0  0  0  0  0  0  0  0  0  0  0  0
    3.7119   -8.5594    0.0000 C   0  0  0  0  0  0  0  0  0  0  0  0
    6.5928  -10.7013    0.0000 C   0  0  0  0  0  0  0  0  0  0  0  0
    4.9394  -10.7097    0.0000 C   0  0  0  0  0  0  0  0  0  0  0  0
    5.2150   -2.9854    0.0000 C   0  0  0  0  0  0  0  0  0  0  0  0
    1.9833   -3.9373    0.0000 C   0  0  0  0  0  0  0  0  0  0  0  0
    1.1566   -3.9373    0.0000 C   0  0  0  0  0  0  0  0  0  0  0  0
    5.3528  -11.4236    0.0000 C   0  0  0  0  0  0  0  0  0  0  0  0
    6.1795  -11.4278    0.0000 C   0  0  0  0  0  0  0  0  0  0  0  0
    0.7432   -3.2234    0.0000 C   0  0  0  0  0  0  0  0  0  0  0  0
  2  1  1  0
  3  6  2  0
  4  2  2  0
  5  2  1  0
  6  1  1  0
  7 13  1  0
  8  9  1  0
  9  7  1  0
 10 12  1  0
 11  5  2  0
 12  7  2  0
 13 15  1  0
 14  5  1  0
 15 19  1  0
 16  4  1  0
 17  1  1  0
 18 11  1  0
 19 22  2  0
 20 14  2  0
 21 26  2  0
 22 27  1  0
 23 17  1  0
 24 14  1  0
 25  6  1  0
 26 23  1  0
 27 23  2  0
 28 13  2  0
 29 15  2  0
 30 16  1  0
 31 25  1  0
 32 31  1  0
 33 29  1  0
 34 33  2  0
 35 32  1  0
  4  3  1  0
 19 21  1  0
 16 18  2  0
 34 28  1  0
 10  8  2  0
M  END
>  <From>  (1) 
www.bindingDB.org

>  <BindingDB Reactant_set_id>  (1) 
50467552

>  <Ligand InChI>  (1) 
InChI=1S/C26H25N7O2/c1-3-4-9-21-28-22-16(2)14-27-23(26(34)35)24(22)33(21)15-17-10-12-18(13-11-17)19-7-5-6-8-20(19)25-29-31-32-30-25/h5-8,10-14H,3-4,9,15H2,1-2H3,(H,34,35)(H,29,30,31,32)

>  <Ligand InChI Key>  (1) 
GCEPCIJDUCGARX-UHFFFAOYSA-N

>  <BindingDB MonomerID>  (1) 
50282377

>  <BindingDB Ligand Name>  (1) 
2-Butyl-7-methyl-3-[2'-(1H-tetrazol-5-yl)-biphenyl-4-ylmethyl]-3H-imidazo[4,5-c]pyridine-4-carboxylic acid::CHEMBL129447

>  <Target Name>  (1) 
Type-1 angiotensin II receptor

>  <Target Source Organism According to Curator or DataSource>  (1) 
Bos taurus

>  <Ki (nM)>  (1) 


>  <IC50 (nM)>  (1) 
 36

>  <Kd (nM)>  (1) 


>  <EC50 (nM)>  (1) 


>  <kon (M-1-s-1)>  (1) 


>  <koff (s-1)>  (1) 


>  <pH>  (1) 


>  <Temp C>  (1) 


>  <Curation/DataSource>  (1) 
ChEMBL

>  <Article DOI>  (1) 
10.1016/S0960-894X(01)81118-5

>  <BindingDB Entry DOI>  (1) 
10.7270/Q21Z44CP

>  <PMID>  (1) 


>  <PubChem AID>  (1) 


>  <Patent Number>  (1) 


>  <Authors>  (1) 
Cho, N; Kubo, K; Furuya, S; Sugiura, Y; Yasuma, T; Kohara, Y; Ojima, M; Inada, Y; Nishikawa, K; Naka, T

>  <Institution>  (1) 
TBA

>  <Link to Ligand in BindingDB>  (1) 
http://www.bindingdb.org/bind/chemsearch/marvin/MolStructure.jsp?monomerid=50282377

>  <Link to Ligand-Target Pair in BindingDB>  (1) 
http://www.bindingdb.org/jsp/dbsearch/PrimarySearch_ki.jsp?energyterm=kJ/mole&tag=r21&monomerid=50282377&enzyme=Type-1+angiotensin+II+receptor&column=ki&startPg=0&Increment=50&submit=Search

>  <Ligand HET ID in PDB>  (1) 


>  <PDB ID(s) for Ligand-Target Complex>  (1) 


>  <PubChem CID of Ligand>  (1) 
15224461

>  <PubChem SID of Ligand>  (1) 
104124051

>  <ChEBI ID of Ligand>  (1) 


>  <ChEMBL ID of Ligand>  (1) 
CHEMBL129447

>  <DrugBank ID of Ligand>  (1) 


>  <IUPHAR_GRAC ID of Ligand>  (1) 


>  <KEGG ID of Ligand>  (1) 


>  <ZINC ID of Ligand>  (1) 
ZINC27310720

>  <Number of Protein Chains in Target (bigger than 1 implies a multichain complex)>  (1) 
1

>  <BindingDB Target Chain Sequence>  (1) 
MILNSSTEDGIKRIQDDCPKAGRHNYIFIMIPTLYSIIFVVGIFGNSLVVIVIYFYMKLKTVASVFLLNLALADLCFLLTLPLWAVYTAMEYRWPFGNYLCKIASASVSFNLYASVFLLTCLSIDRYLAIVHPMKSRLRRTMLVAKVTCIIIWLLAGLASLPTIIHRNVFFIENTNITVCAFHYESQNSTLPVGLGLTKNILGFLFPFLIILTSYTLIWKTLKKAYEIQKNKPRKDDIFKIILAIVLFFFFSWVPHQIFTFMDVLIQLGLIRDCKIEDIVDTAMPITICLAYFNNCLNPLFYGFLGKKFKKYFLQLLKYIPPKAKSHSNLSTKMSTLSYRPSENGNSSTKKPAPCIEVE

>  <PDB ID(s) of Target Chain>  (1) 


>  <UniProt (SwissProt) Recommended Name of Target Chain>  (1) 
Type-1 angiotensin II receptor

>  <UniProt (SwissProt) Entry Name of Target Chain>  (1) 
AGTR1_BOVIN

>  <UniProt (SwissProt) Primary ID of Target Chain>  (1) 
P25104

>  <UniProt (SwissProt) Secondary ID(s) of Target Chain>  (1) 


>  <UniProt (SwissProt) Alternative ID(s) of Target Chain>  (1) 


>  <UniProt (TrEMBL) Submitted Name of Target Chain>  (1) 


>  <UniProt (TrEMBL) Entry Name of Target Chain>  (1) 


>  <UniProt (TrEMBL) Primary ID of Target Chain>  (1) 


>  <UniProt (TrEMBL) Secondary ID(s) of Target Chain>  (1) 


>  <UniProt (TrEMBL) Alternative ID(s) of Target Chain>  (1) 


$$$$
