
     RDKit          2D

 44 48  0  0  0  0  0  0  0  0999 V2000
    9.2792   -4.1042    0.0000 S   0  0  0  0  0  0  0  0  0  0  0  0
    5.0042   -4.1125    0.0000 N   0  0  0  0  0  0  0  0  0  0  0  0
    4.2875   -3.6917    0.0000 C   0  0  0  0  0  0  0  0  0  0  0  0
    3.5667   -4.1125    0.0000 C   0  0  0  0  0  0  0  0  0  0  0  0
    5.0042   -4.9417    0.0000 C   0  0  0  0  0  0  0  0  0  0  0  0
    4.2875   -5.3542    0.0000 N   0  0  0  0  0  0  0  0  0  0  0  0
    9.2792   -3.2792    0.0000 N   0  0  0  0  0  0  0  0  0  0  0  0
    3.5667   -4.9417    0.0000 C   0  0  0  0  0  0  0  0  0  0  0  0
    0.7167   -4.1250    0.0000 C   0  0  0  0  0  0  0  0  0  0  0  0
    9.2875   -4.9292    0.0000 C   0  0  0  0  0  0  0  0  0  0  0  0
    5.7167   -3.7000    0.0000 C   0  0  0  0  0  0  0  0  0  0  0  0
    9.9917   -2.8667    0.0000 C   0  0  0  0  0  0  0  0  0  0  0  0
    6.4375   -4.1125    0.0000 C   0  0  0  0  0  0  0  0  0  0  0  0
    8.5750   -5.3417    0.0000 C   0  0  0  0  0  0  0  0  0  0  0  0
    7.8625   -4.9375    0.0000 C   0  0  0  0  0  0  0  0  0  0  0  0
    1.4292   -3.7042    0.0000 N   0  0  0  0  0  0  0  0  0  0  0  0
    7.1417   -3.7000    0.0000 C   0  0  0  0  0  0  0  0  0  0  0  0
    8.4542   -4.1042    0.0000 O   0  0  0  0  0  0  0  0  0  0  0  0
   10.1042   -4.1042    0.0000 O   0  0  0  0  0  0  0  0  0  0  0  0
    7.8542   -4.1042    0.0000 C   0  0  0  0  0  0  0  0  0  0  0  0
    2.8542   -3.7042    0.0000 C   0  0  0  0  0  0  0  0  0  0  0  0
    0.0042   -3.7125    0.0000 N   0  0  0  0  0  0  0  0  0  0  0  0
    4.2792   -2.8667    0.0000 O   0  0  0  0  0  0  0  0  0  0  0  0
   13.6667   -2.8542    0.0000 C   0  0  0  0  0  0  0  0  0  0  0  0
   13.2542   -2.1417    0.0000 C   0  0  0  0  0  0  0  0  0  0  0  0
    2.1500   -4.1167    0.0000 C   0  0  0  0  0  0  0  0  0  0  0  0
    0.7167   -4.9500    0.0000 O   0  0  0  0  0  0  0  0  0  0  0  0
   12.8500   -2.8542    0.0000 C   0  0  0  0  0  0  0  0  0  0  0  0
    6.4292   -4.9375    0.0000 C   0  0  0  0  0  0  0  0  0  0  0  0
    9.9917   -2.0417    0.0000 O   0  0  0  0  0  0  0  0  0  0  0  0
    7.1417   -5.3500    0.0000 C   0  0  0  0  0  0  0  0  0  0  0  0
    2.8625   -5.3542    0.0000 C   0  0  0  0  0  0  0  0  0  0  0  0
   10.7042   -3.2792    0.0000 O   0  0  0  0  0  0  0  0  0  0  0  0
    7.1417   -2.8750    0.0000 F   0  0  0  0  0  0  0  0  0  0  0  0
    2.1417   -4.9417    0.0000 C   0  0  0  0  0  0  0  0  0  0  0  0
    5.7167   -5.3542    0.0000 C   0  0  0  0  0  0  0  0  0  0  0  0
   10.0000   -5.3375    0.0000 C   0  0  0  0  0  0  0  0  0  0  0  0
   11.4167   -2.8625    0.0000 C   0  0  0  0  0  0  0  0  0  0  0  0
    8.5750   -6.1667    0.0000 C   0  0  0  0  0  0  0  0  0  0  0  0
   12.1375   -3.2750    0.0000 C   0  0  0  0  0  0  0  0  0  0  0  0
   -0.7083   -4.1292    0.0000 C   0  0  0  0  0  0  0  0  0  0  0  0
    0.0042   -2.8875    0.0000 C   0  0  0  0  0  0  0  0  0  0  0  0
   10.0042   -6.1667    0.0000 C   0  0  0  0  0  0  0  0  0  0  0  0
    9.2917   -6.5792    0.0000 C   0  0  0  0  0  0  0  0  0  0  0  0
  2 11  1  0
  3  2  1  0
  4  3  1  0
  5  2  1  0
  6  5  2  0
  7  1  1  0
  8  6  1  0
  9 16  1  0
 10  1  1  0
 11 13  1  0
 12  7  1  0
 13 29  2  0
 14 10  1  0
 15 14  1  0
 16 26  1  0
 17 20  2  0
 18  1  2  0
 19  1  2  0
 20 15  1  0
 21  4  2  0
 22  9  1  0
 23  3  2  0
 24 28  1  0
 25 28  1  0
 26 21  1  0
 27  9  2  0
 28 40  1  0
 29 31  1  0
 30 12  2  0
 31 15  2  0
 32  8  2  0
 33 12  1  0
 34 17  1  0
 35 32  1  0
 36  5  1  0
 37 10  2  0
 38 33  1  0
 39 14  2  0
 40 38  1  0
 41 22  1  0
 42 22  1  0
 43 37  1  0
 44 43  2  0
 44 39  1  0
 17 13  1  0
 24 25  1  0
  4  8  1  0
 26 35  2  0
M  END
>  <From>  (1) 
www.bindingDB.org

>  <BindingDB Reactant_set_id>  (1) 
50469385

>  <Ligand InChI>  (1) 
InChI=1S/C31H32FN5O6S/c1-19-33-27-13-12-23(34-30(39)36(2)3)17-25(27)29(38)37(19)18-22-11-10-21(16-26(22)32)24-6-4-5-7-28(24)44(41,42)35-31(40)43-15-14-20-8-9-20/h4-7,10-13,16-17,20H,8-9,14-15,18H2,1-3H3,(H,34,39)(H,35,40)

>  <Ligand InChI Key>  (1) 
YUGKBHWDRZZXSH-UHFFFAOYSA-N

>  <BindingDB MonomerID>  (1) 
50283303

>  <BindingDB Ligand Name>  (1) 
2-methyl-3-(3-fluoro-2'-(2-cyclopropylethyloxycarbonylaminosulphonyl)-biphenyl-4-ylmethyl)-6-(N,N-dimethylaminocarbonylamino)-3H-quinazolin-4-one::CHEMBL305956

>  <Target Name>  (1) 
Type-1 angiotensin II receptor

>  <Target Source Organism According to Curator or DataSource>  (1) 
Oryctolagus cuniculus

>  <Ki (nM)>  (1) 


>  <IC50 (nM)>  (1) 
 2.3

>  <Kd (nM)>  (1) 


>  <EC50 (nM)>  (1) 


>  <kon (M-1-s-1)>  (1) 


>  <koff (s-1)>  (1) 


>  <pH>  (1) 


>  <Temp C>  (1) 


>  <Curation/DataSource>  (1) 
ChEMBL

>  <Article DOI>  (1) 
10.1016/0960-894X(94)85036-4

>  <BindingDB Entry DOI>  (1) 
10.7270/Q2X066Z9

>  <PMID>  (1) 


>  <PubChem AID>  (1) 


>  <Patent Number>  (1) 


>  <Authors>  (1) 
Glinka, TW; de Laszlo, SE; Siegl, PK; Chang, RS; Kivlighn, SD; Schorn, TS; Faust, KA; Chen, TB; Zingaro, GJ; Lotti, VJ; Greenlee, WJ

>  <Institution>  (1) 
TBA

>  <Link to Ligand in BindingDB>  (1) 
http://www.bindingdb.org/bind/chemsearch/marvin/MolStructure.jsp?monomerid=50283303

>  <Link to Ligand-Target Pair in BindingDB>  (1) 
http://www.bindingdb.org/jsp/dbsearch/PrimarySearch_ki.jsp?energyterm=kJ/mole&tag=r21&monomerid=50283303&enzyme=Type-1+angiotensin+II+receptor&column=ki&startPg=0&Increment=50&submit=Search

>  <Ligand HET ID in PDB>  (1) 


>  <PDB ID(s) for Ligand-Target Complex>  (1) 


>  <PubChem CID of Ligand>  (1) 
44315180

>  <PubChem SID of Ligand>  (1) 
104124960

>  <ChEBI ID of Ligand>  (1) 


>  <ChEMBL ID of Ligand>  (1) 
CHEMBL305956

>  <DrugBank ID of Ligand>  (1) 


>  <IUPHAR_GRAC ID of Ligand>  (1) 


>  <KEGG ID of Ligand>  (1) 


>  <ZINC ID of Ligand>  (1) 
ZINC26386793

>  <Number of Protein Chains in Target (bigger than 1 implies a multichain complex)>  (1) 
1

>  <BindingDB Target Chain Sequence>  (1) 
MMLNSSTEDGIKRIQDDCPKAGRHNYIFVMIPTLYSIIFVVGIFGNSLAVIVIYFYMKLKTVASVFLLNLALADLCFLLTLPLWAVYTAMEYRWPFGNYLCKIASASVSFNLYASVFLLTCLSIDRYLAIVHPMKSRLRRTMLVAKVTCIIIWLLAGLASLPAIIHRNVFFIENTNITVCAFHYESQNSTLPIGLGLTKNILGFLFPFLIILTSYTLIWKALKKAYEIQKNKPRNDDIFKIIMAIVLFFFFSWVPHQIFTFLDVLIQLGVIHDCRIADIVDTAMPITICIAYFNNCLNPLFYGFLGKKFKKYFLQLLKYIPPKAKSHSNLSTKMSTLSYRPSDNVSSSSKKPVPCFEVE

>  <PDB ID(s) of Target Chain>  (1) 
6DO1,6OS0,6OS1,6OS2

>  <UniProt (SwissProt) Recommended Name of Target Chain>  (1) 
Type-1 angiotensin II receptor

>  <UniProt (SwissProt) Entry Name of Target Chain>  (1) 
AGTR1_RABIT

>  <UniProt (SwissProt) Primary ID of Target Chain>  (1) 
P34976

>  <UniProt (SwissProt) Secondary ID(s) of Target Chain>  (1) 


>  <UniProt (SwissProt) Alternative ID(s) of Target Chain>  (1) 


>  <UniProt (TrEMBL) Submitted Name of Target Chain>  (1) 


>  <UniProt (TrEMBL) Entry Name of Target Chain>  (1) 


>  <UniProt (TrEMBL) Primary ID of Target Chain>  (1) 


>  <UniProt (TrEMBL) Secondary ID(s) of Target Chain>  (1) 


>  <UniProt (TrEMBL) Alternative ID(s) of Target Chain>  (1) 


$$$$
