
     RDKit          2D

 46 49  0  0  0  0  0  0  0  0999 V2000
    7.2567    0.6012    0.0000 S   0  0  0  0  0  0  0  0  0  0  0  0
    2.9728    0.5970    0.0000 N   0  0  0  0  0  0  0  0  0  0  0  0
    2.2463    1.0104    0.0000 C   0  0  0  0  0  0  0  0  0  0  0  0
    1.5324    0.5970    0.0000 C   0  0  0  0  0  0  0  0  0  0  0  0
    2.9728   -0.2380    0.0000 C   0  0  0  0  0  0  0  0  0  0  0  0
    2.2463   -0.6513    0.0000 N   0  0  0  0  0  0  0  0  0  0  0  0
    7.2525    1.4280    0.0000 N   0  0  0  0  0  0  0  0  0  0  0  0
   -1.3235    0.5845    0.0000 C   0  0  0  0  0  0  0  0  0  0  0  0
    1.5324   -0.2422    0.0000 C   0  0  0  0  0  0  0  0  0  0  0  0
    7.2567   -0.2171    0.0000 C   0  0  0  0  0  0  0  0  0  0  0  0
    3.6868    1.0104    0.0000 C   0  0  0  0  0  0  0  0  0  0  0  0
    7.9707    1.8413    0.0000 C   0  0  0  0  0  0  0  0  0  0  0  0
    4.4008    0.5970    0.0000 C   0  0  0  0  0  0  0  0  0  0  0  0
    6.5427   -0.6388    0.0000 C   0  0  0  0  0  0  0  0  0  0  0  0
    5.8288   -0.2297    0.0000 C   0  0  0  0  0  0  0  0  0  0  0  0
   -2.0375    0.9979    0.0000 N   0  0  0  0  0  0  0  0  0  0  0  0
   -0.6096    0.9979    0.0000 N   0  0  0  0  0  0  0  0  0  0  0  0
    5.1148    1.0104    0.0000 C   0  0  0  0  0  0  0  0  0  0  0  0
    6.4300    0.6012    0.0000 O   0  0  0  0  0  0  0  0  0  0  0  0
    8.0834    0.6012    0.0000 O   0  0  0  0  0  0  0  0  0  0  0  0
    5.8288    0.5970    0.0000 C   0  0  0  0  0  0  0  0  0  0  0  0
    0.8184    1.0021    0.0000 C   0  0  0  0  0  0  0  0  0  0  0  0
    2.2463    1.8371    0.0000 O   0  0  0  0  0  0  0  0  0  0  0  0
   -1.3235   -0.2422    0.0000 O   0  0  0  0  0  0  0  0  0  0  0  0
    0.1044    0.5845    0.0000 C   0  0  0  0  0  0  0  0  0  0  0  0
    4.4008   -0.2297    0.0000 C   0  0  0  0  0  0  0  0  0  0  0  0
    7.9665    2.6680    0.0000 O   0  0  0  0  0  0  0  0  0  0  0  0
    5.1148   -0.6430    0.0000 C   0  0  0  0  0  0  0  0  0  0  0  0
    0.8184   -0.6513    0.0000 C   0  0  0  0  0  0  0  0  0  0  0  0
   -2.7557    0.5762    0.0000 C   0  0  0  0  0  0  0  0  0  0  0  0
    8.6847    1.4280    0.0000 O   0  0  0  0  0  0  0  0  0  0  0  0
    5.1106    1.8371    0.0000 F   0  0  0  0  0  0  0  0  0  0  0  0
    0.1044   -0.2422    0.0000 C   0  0  0  0  0  0  0  0  0  0  0  0
    3.6868   -0.6513    0.0000 C   0  0  0  0  0  0  0  0  0  0  0  0
    7.9707   -0.6305    0.0000 C   0  0  0  0  0  0  0  0  0  0  0  0
    9.3986    1.8496    0.0000 C   0  0  0  0  0  0  0  0  0  0  0  0
    6.5427   -1.4697    0.0000 C   0  0  0  0  0  0  0  0  0  0  0  0
   -2.0417    1.8246    0.0000 C   0  0  0  0  0  0  0  0  0  0  0  0
   -3.4697    0.9895    0.0000 C   0  0  0  0  0  0  0  0  0  0  0  0
   -2.7515   -0.2505    0.0000 C   0  0  0  0  0  0  0  0  0  0  0  0
   10.1126    1.4363    0.0000 C   0  0  0  0  0  0  0  0  0  0  0  0
   10.8266    1.8496    0.0000 C   0  0  0  0  0  0  0  0  0  0  0  0
    7.2650   -1.8789    0.0000 C   0  0  0  0  0  0  0  0  0  0  0  0
    7.9790   -1.4655    0.0000 C   0  0  0  0  0  0  0  0  0  0  0  0
   10.8266    2.6763    0.0000 C   0  0  0  0  0  0  0  0  0  0  0  0
   11.5489    1.4363    0.0000 C   0  0  0  0  0  0  0  0  0  0  0  0
  2 11  1  0
  3  2  1  0
  4  3  1  0
  5  2  1  0
  6  5  2  0
  7  1  1  0
  8 17  1  0
  9  6  1  0
 10  1  1  0
 11 13  1  0
 12  7  1  0
 13 26  2  0
 14 10  2  0
 15 14  1  0
 16  8  1  0
 17 25  1  0
 18 21  2  0
 19  1  2  0
 20  1  2  0
 21 15  1  0
 22  4  2  0
 23  3  2  0
 24  8  2  0
 25 22  1  0
 26 28  1  0
 27 12  2  0
 28 15  2  0
 29  9  2  0
 30 16  1  0
 31 12  1  0
 32 18  1  0
 33 29  1  0
 34  5  1  0
 35 10  1  0
 36 31  1  0
 37 14  1  0
 38 16  1  0
 39 30  1  0
 40 30  1  0
 41 36  1  0
 42 41  1  0
 43 44  1  0
 44 35  2  0
 45 42  1  0
 46 42  1  0
 43 37  2  0
 13 18  1  0
  9  4  1  0
 33 25  2  0
M  END
>  <From>  (1) 
www.bindingDB.org

>  <BindingDB Reactant_set_id>  (1) 
50469275

>  <Ligand InChI>  (1) 
InChI=1S/C33H38FN5O6S/c1-20(2)15-16-45-33(42)37-46(43,44)30-10-8-7-9-26(30)23-11-12-24(28(34)17-23)19-39-22(5)35-29-14-13-25(18-27(29)31(39)40)36-32(41)38(6)21(3)4/h7-14,17-18,20-21H,15-16,19H2,1-6H3,(H,36,41)(H,37,42)

>  <Ligand InChI Key>  (1) 
LNKVMRUZWGLRSF-UHFFFAOYSA-N

>  <BindingDB MonomerID>  (1) 
50283304

>  <BindingDB Ligand Name>  (1) 
2-methyl-3-(3-fluoro-2'-(3-methyl-butyloxycarbonylaminosulphonyl)-biphenyl-4-ylmethyl)-6-(N-isopropyl-N-methyl-aminocarbonylamino)-3H-quinazolin-4-one::CHEMBL75401

>  <Target Name>  (1) 
Type-1 angiotensin II receptor

>  <Target Source Organism According to Curator or DataSource>  (1) 
Homo sapiens

>  <Ki (nM)>  (1) 


>  <IC50 (nM)>  (1) 
 27

>  <Kd (nM)>  (1) 


>  <EC50 (nM)>  (1) 


>  <kon (M-1-s-1)>  (1) 


>  <koff (s-1)>  (1) 


>  <pH>  (1) 


>  <Temp C>  (1) 


>  <Curation/DataSource>  (1) 
ChEMBL

>  <Article DOI>  (1) 
10.1016/0960-894X(94)85036-4

>  <BindingDB Entry DOI>  (1) 
10.7270/Q2X066Z9

>  <PMID>  (1) 


>  <PubChem AID>  (1) 


>  <Patent Number>  (1) 


>  <Authors>  (1) 
Glinka, TW; de Laszlo, SE; Siegl, PK; Chang, RS; Kivlighn, SD; Schorn, TS; Faust, KA; Chen, TB; Zingaro, GJ; Lotti, VJ; Greenlee, WJ

>  <Institution>  (1) 
TBA

>  <Link to Ligand in BindingDB>  (1) 
http://www.bindingdb.org/bind/chemsearch/marvin/MolStructure.jsp?monomerid=50283304

>  <Link to Ligand-Target Pair in BindingDB>  (1) 
http://www.bindingdb.org/jsp/dbsearch/PrimarySearch_ki.jsp?energyterm=kJ/mole&tag=r21&monomerid=50283304&enzyme=Type-1+angiotensin+II+receptor&column=ki&startPg=0&Increment=50&submit=Search

>  <Ligand HET ID in PDB>  (1) 


>  <PDB ID(s) for Ligand-Target Complex>  (1) 


>  <PubChem CID of Ligand>  (1) 
44315057

>  <PubChem SID of Ligand>  (1) 
104124961

>  <ChEBI ID of Ligand>  (1) 


>  <ChEMBL ID of Ligand>  (1) 
CHEMBL75401

>  <DrugBank ID of Ligand>  (1) 


>  <IUPHAR_GRAC ID of Ligand>  (1) 


>  <KEGG ID of Ligand>  (1) 


>  <ZINC ID of Ligand>  (1) 
ZINC26391514

>  <Number of Protein Chains in Target (bigger than 1 implies a multichain complex)>  (1) 
1

>  <BindingDB Target Chain Sequence>  (1) 
MILNSSTEDGIKRIQDDCPKAGRHNYIFVMIPTLYSIIFVVGIFGNSLVVIVIYFYMKLKTVASVFLLNLALADLCFLLTLPLWAVYTAMEYRWPFGNYLCKIASASVSFNLYASVFLLTCLSIDRYLAIVHPMKSRLRRTMLVAKVTCIIIWLLAGLASLPAIIHRNVFFIENTNITVCAFHYESQNSTLPIGLGLTKNILGFLFPFLIILTSYTLIWKALKKAYEIQKNKPRNDDIFKIIMAIVLFFFFSWIPHQIFTFLDVLIQLGIIRDCRIADIVDTAMPITICIAYFNNCLNPLFYGFLGKKFKRYFLQLLKYIPPKAKSHSNLSTKMSTLSYRPSDNVSSSTKKPAPCFEVE

>  <PDB ID(s) of Target Chain>  (1) 
6DO1,6OS0,6OS1,6OS2

>  <UniProt (SwissProt) Recommended Name of Target Chain>  (1) 
Type-1 angiotensin II receptor

>  <UniProt (SwissProt) Entry Name of Target Chain>  (1) 
AGTR1_HUMAN

>  <UniProt (SwissProt) Primary ID of Target Chain>  (1) 
P30556

>  <UniProt (SwissProt) Secondary ID(s) of Target Chain>  (1) 
Q13725 Q8TBK4

>  <UniProt (SwissProt) Alternative ID(s) of Target Chain>  (1) 


>  <UniProt (TrEMBL) Submitted Name of Target Chain>  (1) 


>  <UniProt (TrEMBL) Entry Name of Target Chain>  (1) 


>  <UniProt (TrEMBL) Primary ID of Target Chain>  (1) 


>  <UniProt (TrEMBL) Secondary ID(s) of Target Chain>  (1) 


>  <UniProt (TrEMBL) Alternative ID(s) of Target Chain>  (1) 


$$$$
