
     RDKit          2D

 47 52  0  0  0  0  0  0  0  0999 V2000
    4.9155   -7.2733    0.0000 N   0  0  0  0  0  0  0  0  0  0  0  0
    5.5612   -6.7526    0.0000 C   0  0  0  0  0  0  0  0  0  0  0  0
    5.2654   -5.9861    0.0000 C   0  0  0  0  0  0  0  0  0  0  0  0
    4.4406   -6.0278    0.0000 N   0  0  0  0  0  0  0  0  0  0  0  0
    4.2282   -6.8234    0.0000 C   0  0  0  0  0  0  0  0  0  0  0  0
    8.5272   -8.3272    0.0000 C   0  0  0  0  0  0  0  0  0  0  0  0
    8.0523   -7.0858    0.0000 N   0  0  0  0  0  0  0  0  0  0  0  0
    7.8356   -7.8773    0.0000 N   0  0  0  0  0  0  0  0  0  0  0  0
    8.8729   -7.0400    0.0000 N   0  0  0  0  0  0  0  0  0  0  0  0
    9.1645   -7.8106    0.0000 N   0  0  0  0  0  0  0  0  0  0  0  0
    5.3487   -4.5614    0.0000 N   0  0  0  0  0  0  0  0  0  0  0  0
    4.5281   -4.5031    0.0000 C   0  0  0  0  0  0  0  0  0  0  0  0
    6.3527   -6.9733    0.0000 C   0  0  0  0  0  0  0  0  0  0  0  0
    8.5772   -9.1520    0.0000 C   0  0  0  0  0  0  0  0  0  0  0  0
    5.7153   -5.2904    0.0000 C   0  0  0  0  0  0  0  0  0  0  0  0
    7.8856   -9.6019    0.0000 C   0  0  0  0  0  0  0  0  0  0  0  0
    4.9530   -8.0981    0.0000 C   0  0  0  0  0  0  0  0  0  0  0  0
    7.1525   -9.2270    0.0000 C   0  0  0  0  0  0  0  0  0  0  0  0
    4.1532   -3.7783    0.0000 C   0  0  0  0  0  0  0  0  0  0  0  0
    5.8028   -3.8658    0.0000 C   0  0  0  0  0  0  0  0  0  0  0  0
    4.0740   -5.2030    0.0000 O   0  0  0  0  0  0  0  0  0  0  0  0
    6.3527   -7.5232    0.0000 O   0  0  0  0  0  0  0  0  0  0  0  0
    6.4610   -9.6727    0.0000 C   0  0  0  0  0  0  0  0  0  0  0  0
    7.1150   -8.3980    0.0000 C   0  0  0  0  0  0  0  0  0  0  0  0
    5.6903   -8.4730    0.0000 C   0  0  0  0  0  0  0  0  0  0  0  0
    6.9400   -6.3902    0.0000 O   0  0  0  0  0  0  0  0  0  0  0  0
    3.4534   -7.1150    0.0000 C   0  0  0  0  0  0  0  0  0  0  0  0
    3.3284   -3.7283    0.0000 C   0  0  0  0  0  0  0  0  0  0  0  0
    5.4279   -3.1285    0.0000 C   0  0  0  0  0  0  0  0  0  0  0  0
    6.3777   -8.0273    0.0000 C   0  0  0  0  0  0  0  0  0  0  0  0
    5.7278   -9.2978    0.0000 C   0  0  0  0  0  0  0  0  0  0  0  0
    9.3103   -9.5269    0.0000 C   0  0  0  0  0  0  0  0  0  0  0  0
    7.9273  -10.4267    0.0000 C   0  0  0  0  0  0  0  0  0  0  0  0
    5.8778   -2.4411    0.0000 C   0  0  0  0  0  0  0  0  0  0  0  0
    4.6114   -3.0910    0.0000 C   0  0  0  0  0  0  0  0  0  0  0  0
    2.9618   -2.9910    0.0000 C   0  0  0  0  0  0  0  0  0  0  0  0
    2.8785   -4.4156    0.0000 C   0  0  0  0  0  0  0  0  0  0  0  0
    2.8160   -6.5901    0.0000 C   0  0  0  0  0  0  0  0  0  0  0  0
    9.3520  -10.3517    0.0000 C   0  0  0  0  0  0  0  0  0  0  0  0
    8.6604  -10.8016    0.0000 C   0  0  0  0  0  0  0  0  0  0  0  0
    2.0495   -6.8859    0.0000 C   0  0  0  0  0  0  0  0  0  0  0  0
    4.2365   -2.3536    0.0000 C   0  0  0  0  0  0  0  0  0  0  0  0
    2.1412   -2.9410    0.0000 C   0  0  0  0  0  0  0  0  0  0  0  0
    2.0620   -4.3740    0.0000 C   0  0  0  0  0  0  0  0  0  0  0  0
    5.5112   -1.7121    0.0000 C   0  0  0  0  0  0  0  0  0  0  0  0
    4.6864   -1.6621    0.0000 C   0  0  0  0  0  0  0  0  0  0  0  0
    1.6871   -3.6366    0.0000 C   0  0  0  0  0  0  0  0  0  0  0  0
  2  1  1  0
  3  2  2  0
  4  5  2  0
  5  1  1  0
  6 14  1  0
  7  8  1  0
  8  6  1  0
  9 10  1  0
 10  6  2  0
 11 15  1  0
 12 11  1  0
 13  2  1  0
 14 16  1  0
 15  3  1  0
 16 18  1  0
 17  1  1  0
 18 23  2  0
 19 12  1  0
 20 11  1  0
 21 12  2  0
 22 13  2  0
 23 31  1  0
 24 30  2  0
 25 17  1  0
 26 13  1  0
 27  5  1  0
 28 19  1  0
 29 20  1  0
 30 25  1  0
 31 25  2  0
 32 14  2  0
 33 16  2  0
 34 29  2  0
 35 29  1  0
 36 28  2  0
 37 28  1  0
 38 27  1  0
 39 40  2  0
 40 33  1  0
 41 38  1  0
 42 35  2  0
 43 36  1  0
 44 37  2  0
 45 34  1  0
 46 42  1  0
 47 44  1  0
  4  3  1  0
 24 18  1  0
 39 32  1  0
 46 45  2  0
  7  9  2  0
 47 43  2  0
M  END
>  <From>  (1) 
www.bindingDB.org

>  <BindingDB Reactant_set_id>  (1) 
50469072

>  <Ligand InChI>  (1) 
InChI=1S/C37H35N7O3/c1-2-11-33-38-32(25-43(23-27-14-7-4-8-15-27)34(45)22-26-12-5-3-6-13-26)35(37(46)47)44(33)24-28-18-20-29(21-19-28)30-16-9-10-17-31(30)36-39-41-42-40-36/h3-10,12-21H,2,11,22-25H2,1H3,(H,46,47)(H,39,40,41,42)

>  <Ligand InChI Key>  (1) 
JJEKQVJYSYWGCQ-UHFFFAOYSA-N

>  <BindingDB MonomerID>  (1) 
50283189

>  <BindingDB Ligand Name>  (1) 
5-[(Benzyl-phenylacetyl-amino)-methyl]-2-propyl-3-[2'-(1H-tetrazol-5-yl)-biphenyl-4-ylmethyl]-3H-imidazole-4-carboxylic acid::CHEMBL74113

>  <Target Name>  (1) 
Type-1 angiotensin II receptor

>  <Target Source Organism According to Curator or DataSource>  (1) 
Homo sapiens

>  <Ki (nM)>  (1) 


>  <IC50 (nM)>  (1) 
 20

>  <Kd (nM)>  (1) 


>  <EC50 (nM)>  (1) 


>  <kon (M-1-s-1)>  (1) 


>  <koff (s-1)>  (1) 


>  <pH>  (1) 


>  <Temp C>  (1) 


>  <Curation/DataSource>  (1) 
ChEMBL

>  <Article DOI>  (1) 
10.1016/S0960-894X(00)80076-1

>  <BindingDB Entry DOI>  (1) 
10.7270/Q2JQ110M

>  <PMID>  (1) 


>  <PubChem AID>  (1) 


>  <Patent Number>  (1) 


>  <Authors>  (1) 
Olson, RE; Liu, J; Lalka, GK; VanAtten, MK; Wexler, RR; Chiu, AT; Nguyen, TT; McCall, DE; Wong, PC; Timmermans, PB

>  <Institution>  (1) 
TBA

>  <Link to Ligand in BindingDB>  (1) 
http://www.bindingdb.org/bind/chemsearch/marvin/MolStructure.jsp?monomerid=50283189

>  <Link to Ligand-Target Pair in BindingDB>  (1) 
http://www.bindingdb.org/jsp/dbsearch/PrimarySearch_ki.jsp?energyterm=kJ/mole&tag=r21&monomerid=50283189&enzyme=Type-1+angiotensin+II+receptor&column=ki&startPg=0&Increment=50&submit=Search

>  <Ligand HET ID in PDB>  (1) 


>  <PDB ID(s) for Ligand-Target Complex>  (1) 


>  <PubChem CID of Ligand>  (1) 
44311569

>  <PubChem SID of Ligand>  (1) 
104124863

>  <ChEBI ID of Ligand>  (1) 


>  <ChEMBL ID of Ligand>  (1) 
CHEMBL74113

>  <DrugBank ID of Ligand>  (1) 


>  <IUPHAR_GRAC ID of Ligand>  (1) 


>  <KEGG ID of Ligand>  (1) 


>  <ZINC ID of Ligand>  (1) 
ZINC26376140

>  <Number of Protein Chains in Target (bigger than 1 implies a multichain complex)>  (1) 
1

>  <BindingDB Target Chain Sequence>  (1) 
MILNSSTEDGIKRIQDDCPKAGRHNYIFVMIPTLYSIIFVVGIFGNSLVVIVIYFYMKLKTVASVFLLNLALADLCFLLTLPLWAVYTAMEYRWPFGNYLCKIASASVSFNLYASVFLLTCLSIDRYLAIVHPMKSRLRRTMLVAKVTCIIIWLLAGLASLPAIIHRNVFFIENTNITVCAFHYESQNSTLPIGLGLTKNILGFLFPFLIILTSYTLIWKALKKAYEIQKNKPRNDDIFKIIMAIVLFFFFSWIPHQIFTFLDVLIQLGIIRDCRIADIVDTAMPITICIAYFNNCLNPLFYGFLGKKFKRYFLQLLKYIPPKAKSHSNLSTKMSTLSYRPSDNVSSSTKKPAPCFEVE

>  <PDB ID(s) of Target Chain>  (1) 
6DO1,6OS0,6OS1,6OS2

>  <UniProt (SwissProt) Recommended Name of Target Chain>  (1) 
Type-1 angiotensin II receptor

>  <UniProt (SwissProt) Entry Name of Target Chain>  (1) 
AGTR1_HUMAN

>  <UniProt (SwissProt) Primary ID of Target Chain>  (1) 
P30556

>  <UniProt (SwissProt) Secondary ID(s) of Target Chain>  (1) 
Q13725 Q8TBK4

>  <UniProt (SwissProt) Alternative ID(s) of Target Chain>  (1) 


>  <UniProt (TrEMBL) Submitted Name of Target Chain>  (1) 


>  <UniProt (TrEMBL) Entry Name of Target Chain>  (1) 


>  <UniProt (TrEMBL) Primary ID of Target Chain>  (1) 


>  <UniProt (TrEMBL) Secondary ID(s) of Target Chain>  (1) 


>  <UniProt (TrEMBL) Alternative ID(s) of Target Chain>  (1) 


$$$$
