
     RDKit          2D

 50 53  0  0  0  0  0  0  0  0999 V2000
    6.4288   -7.7239    0.0000 S   0  0  0  0  0  0  0  0  0  0  0  0
    2.8672   -6.4756    0.0000 N   0  0  0  0  0  0  0  0  0  0  0  0
    3.5343   -5.9958    0.0000 C   0  0  0  0  0  0  0  0  0  0  0  0
    2.4615   -5.2117    0.0000 N   0  0  0  0  0  0  0  0  0  0  0  0
    3.2807   -5.2117    0.0000 C   0  0  0  0  0  0  0  0  0  0  0  0
    2.2041   -5.9919    0.0000 C   0  0  0  0  0  0  0  0  0  0  0  0
    7.1427   -7.3065    0.0000 N   0  0  0  0  0  0  0  0  0  0  0  0
    6.4288   -8.5470    0.0000 C   0  0  0  0  0  0  0  0  0  0  0  0
    2.8672   -7.3026    0.0000 C   0  0  0  0  0  0  0  0  0  0  0  0
    4.3223   -6.2533    0.0000 C   0  0  0  0  0  0  0  0  0  0  0  0
    7.8643   -7.7239    0.0000 C   0  0  0  0  0  0  0  0  0  0  0  0
    3.5811   -7.7161    0.0000 C   0  0  0  0  0  0  0  0  0  0  0  0
    5.7149   -8.9566    0.0000 C   0  0  0  0  0  0  0  0  0  0  0  0
    5.0011   -8.5470    0.0000 C   0  0  0  0  0  0  0  0  0  0  0  0
    3.5733   -8.5470    0.0000 C   0  0  0  0  0  0  0  0  0  0  0  0
    5.7110   -8.1335    0.0000 O   0  0  0  0  0  0  0  0  0  0  0  0
    5.8437   -7.1387    0.0000 O   0  0  0  0  0  0  0  0  0  0  0  0
    4.2872   -8.9566    0.0000 C   0  0  0  0  0  0  0  0  0  0  0  0
    4.9386   -5.7032    0.0000 O   0  0  0  0  0  0  0  0  0  0  0  0
    6.3352   -5.4107    0.0000 C   0  0  0  0  0  0  0  0  0  0  0  0
    4.2872   -7.3065    0.0000 C   0  0  0  0  0  0  0  0  0  0  0  0
    7.8643   -8.5470    0.0000 O   0  0  0  0  0  0  0  0  0  0  0  0
    5.7227   -5.9607    0.0000 C   0  0  0  0  0  0  0  0  0  0  0  0
    4.4627   -6.8345    0.0000 O   0  0  0  0  0  0  0  0  0  0  0  0
    5.0011   -7.7161    0.0000 C   0  0  0  0  0  0  0  0  0  0  0  0
    6.1674   -4.6032    0.0000 C   0  0  0  0  0  0  0  0  0  0  0  0
    2.8555   -8.9527    0.0000 F   0  0  0  0  0  0  0  0  0  0  0  0
    8.5821   -7.3065    0.0000 O   0  0  0  0  0  0  0  0  0  0  0  0
    3.4914   -4.4120    0.0000 C   0  0  0  0  0  0  0  0  0  0  0  0
    1.4160   -6.2416    0.0000 C   0  0  0  0  0  0  0  0  0  0  0  0
    5.3833   -4.3457    0.0000 O   0  0  0  0  0  0  0  0  0  0  0  0
    7.1427   -8.9566    0.0000 C   0  0  0  0  0  0  0  0  0  0  0  0
    5.7149   -9.7875    0.0000 C   0  0  0  0  0  0  0  0  0  0  0  0
    7.1193   -5.6681    0.0000 C   0  0  0  0  0  0  0  0  0  0  0  0
    6.7799   -4.0531    0.0000 C   0  0  0  0  0  0  0  0  0  0  0  0
    9.2960   -7.7161    0.0000 C   0  0  0  0  0  0  0  0  0  0  0  0
    5.2117   -3.5382    0.0000 C   0  0  0  0  0  0  0  0  0  0  0  0
    0.7997   -5.6876    0.0000 C   0  0  0  0  0  0  0  0  0  0  0  0
    2.9062   -3.8308    0.0000 C   0  0  0  0  0  0  0  0  0  0  0  0
   10.0099   -7.3065    0.0000 C   0  0  0  0  0  0  0  0  0  0  0  0
   12.8771   -7.3065    0.0000 C   0  0  0  0  0  0  0  0  0  0  0  0
   12.1632   -7.7161    0.0000 C   0  0  0  0  0  0  0  0  0  0  0  0
   11.4454   -7.3065    0.0000 C   0  0  0  0  0  0  0  0  0  0  0  0
   10.7237   -7.7161    0.0000 C   0  0  0  0  0  0  0  0  0  0  0  0
    6.4288  -10.2049    0.0000 C   0  0  0  0  0  0  0  0  0  0  0  0
    7.1504   -9.7875    0.0000 C   0  0  0  0  0  0  0  0  0  0  0  0
    7.7395   -5.1181    0.0000 C   0  0  0  0  0  0  0  0  0  0  0  0
    0.0156   -5.9373    0.0000 C   0  0  0  0  0  0  0  0  0  0  0  0
   13.5909   -7.7161    0.0000 C   0  0  0  0  0  0  0  0  0  0  0  0
    7.5717   -4.3067    0.0000 C   0  0  0  0  0  0  0  0  0  0  0  0
  2  9  1  0
  3  2  1  0
  4  6  2  0
  5  3  2  0
  6  2  1  0
  7  1  1  0
  8  1  1  0
  9 12  1  0
 10  3  1  0
 11  7  1  0
 12 21  2  0
 13  8  2  0
 14 13  1  0
 15 18  2  0
 16  1  2  0
 17  1  2  0
 18 14  1  0
 19 10  1  0
 20 23  1  0
 21 25  1  0
 22 11  2  0
 23 19  1  0
 24 10  2  0
 25 14  2  0
 26 20  2  0
 27 15  1  0
 28 11  1  0
 29  5  1  0
 30  6  1  0
 31 26  1  0
 32  8  1  0
 33 13  1  0
 34 20  1  0
 35 26  1  0
 36 28  1  0
 37 31  1  0
 38 30  1  0
 39 29  1  0
 40 36  1  0
 41 42  1  0
 42 43  1  0
 43 44  1  0
 44 40  1  0
 45 46  1  0
 46 32  2  0
 47 34  2  0
 48 38  1  0
 49 41  1  0
 50 47  1  0
 45 33  2  0
 15 12  1  0
  4  5  1  0
 50 35  2  0
M  END
>  <From>  (1) 
www.bindingDB.org

>  <BindingDB Reactant_set_id>  (1) 
50469080

>  <Ligand InChI>  (1) 
InChI=1S/C38H46FN3O7S/c1-5-8-9-10-15-23-48-38(44)41-50(45,46)34-20-14-12-18-30(34)27-21-22-28(31(39)24-27)25-42-35(16-6-2)40-32(7-3)36(42)37(43)49-26-29-17-11-13-19-33(29)47-4/h11-14,17-22,24H,5-10,15-16,23,25-26H2,1-4H3,(H,41,44)

>  <Ligand InChI Key>  (1) 
QNGALSSOBDBQON-UHFFFAOYSA-N

>  <BindingDB MonomerID>  (1) 
50283197

>  <BindingDB Ligand Name>  (1) 
Biphenylsulfonylcarbamate compound::CHEMBL308482

>  <Target Name>  (1) 
Type-1 angiotensin II receptor

>  <Target Source Organism According to Curator or DataSource>  (1) 
Homo sapiens

>  <Ki (nM)>  (1) 


>  <IC50 (nM)>  (1) 
 1

>  <Kd (nM)>  (1) 


>  <EC50 (nM)>  (1) 


>  <kon (M-1-s-1)>  (1) 


>  <koff (s-1)>  (1) 


>  <pH>  (1) 


>  <Temp C>  (1) 


>  <Curation/DataSource>  (1) 
ChEMBL

>  <Article DOI>  (1) 
10.1016/S0960-894X(00)80077-3

>  <BindingDB Entry DOI>  (1) 
10.7270/Q2DZ088W

>  <PMID>  (1) 


>  <PubChem AID>  (1) 


>  <Patent Number>  (1) 


>  <Authors>  (1) 
Santella, JB; Duncia, JV; Ensinger, CL; VanAtten, MK; Carini, DJ; Wexler, RR; Chiu, AT; Wong, PC; Timmermans, PB

>  <Institution>  (1) 
TBA

>  <Link to Ligand in BindingDB>  (1) 
http://www.bindingdb.org/bind/chemsearch/marvin/MolStructure.jsp?monomerid=50283197

>  <Link to Ligand-Target Pair in BindingDB>  (1) 
http://www.bindingdb.org/jsp/dbsearch/PrimarySearch_ki.jsp?energyterm=kJ/mole&tag=r21&monomerid=50283197&enzyme=Type-1+angiotensin+II+receptor&column=ki&startPg=0&Increment=50&submit=Search

>  <Ligand HET ID in PDB>  (1) 


>  <PDB ID(s) for Ligand-Target Complex>  (1) 


>  <PubChem CID of Ligand>  (1) 
44311071

>  <PubChem SID of Ligand>  (1) 
104124871

>  <ChEBI ID of Ligand>  (1) 


>  <ChEMBL ID of Ligand>  (1) 
CHEMBL308482

>  <DrugBank ID of Ligand>  (1) 


>  <IUPHAR_GRAC ID of Ligand>  (1) 


>  <KEGG ID of Ligand>  (1) 


>  <ZINC ID of Ligand>  (1) 
ZINC49672492

>  <Number of Protein Chains in Target (bigger than 1 implies a multichain complex)>  (1) 
1

>  <BindingDB Target Chain Sequence>  (1) 
MILNSSTEDGIKRIQDDCPKAGRHNYIFVMIPTLYSIIFVVGIFGNSLVVIVIYFYMKLKTVASVFLLNLALADLCFLLTLPLWAVYTAMEYRWPFGNYLCKIASASVSFNLYASVFLLTCLSIDRYLAIVHPMKSRLRRTMLVAKVTCIIIWLLAGLASLPAIIHRNVFFIENTNITVCAFHYESQNSTLPIGLGLTKNILGFLFPFLIILTSYTLIWKALKKAYEIQKNKPRNDDIFKIIMAIVLFFFFSWIPHQIFTFLDVLIQLGIIRDCRIADIVDTAMPITICIAYFNNCLNPLFYGFLGKKFKRYFLQLLKYIPPKAKSHSNLSTKMSTLSYRPSDNVSSSTKKPAPCFEVE

>  <PDB ID(s) of Target Chain>  (1) 
6DO1,6OS0,6OS1,6OS2

>  <UniProt (SwissProt) Recommended Name of Target Chain>  (1) 
Type-1 angiotensin II receptor

>  <UniProt (SwissProt) Entry Name of Target Chain>  (1) 
AGTR1_HUMAN

>  <UniProt (SwissProt) Primary ID of Target Chain>  (1) 
P30556

>  <UniProt (SwissProt) Secondary ID(s) of Target Chain>  (1) 
Q13725 Q8TBK4

>  <UniProt (SwissProt) Alternative ID(s) of Target Chain>  (1) 


>  <UniProt (TrEMBL) Submitted Name of Target Chain>  (1) 


>  <UniProt (TrEMBL) Entry Name of Target Chain>  (1) 


>  <UniProt (TrEMBL) Primary ID of Target Chain>  (1) 


>  <UniProt (TrEMBL) Secondary ID(s) of Target Chain>  (1) 


>  <UniProt (TrEMBL) Alternative ID(s) of Target Chain>  (1) 


$$$$
