
     RDKit          2D

 38 42  0  0  0  0  0  0  0  0999 V2000
    6.6345   -5.1048    0.0000 C   0  0  0  0  0  0  0  0  0  0  0  0
    5.9652   -5.5911    0.0000 C   0  0  0  0  0  0  0  0  0  0  0  0
    6.3768   -4.3191    0.0000 N   0  0  0  0  0  0  0  0  0  0  0  0
    5.5537   -4.3191    0.0000 N   0  0  0  0  0  0  0  0  0  0  0  0
    9.5444   -7.1998    0.0000 C   0  0  0  0  0  0  0  0  0  0  0  0
    5.3043   -5.1048    0.0000 C   0  0  0  0  0  0  0  0  0  0  0  0
    9.1328   -5.9361    0.0000 N   0  0  0  0  0  0  0  0  0  0  0  0
    8.8792   -6.7135    0.0000 N   0  0  0  0  0  0  0  0  0  0  0  0
    9.9559   -5.9278    0.0000 N   0  0  0  0  0  0  0  0  0  0  0  0
   10.2053   -6.7135    0.0000 N   0  0  0  0  0  0  0  0  0  0  0  0
    7.4119   -5.3542    0.0000 C   0  0  0  0  0  0  0  0  0  0  0  0
    9.5526   -8.0187    0.0000 C   0  0  0  0  0  0  0  0  0  0  0  0
    8.8418   -8.4303    0.0000 C   0  0  0  0  0  0  0  0  0  0  0  0
    5.9902   -6.7883    0.0000 C   0  0  0  0  0  0  0  0  0  0  0  0
    6.5888   -3.5210    0.0000 C   0  0  0  0  0  0  0  0  0  0  0  0
    8.1310   -8.0229    0.0000 C   0  0  0  0  0  0  0  0  0  0  0  0
    7.5698   -6.0151    0.0000 O   0  0  0  0  0  0  0  0  0  0  0  0
    8.1310   -7.1957    0.0000 C   0  0  0  0  0  0  0  0  0  0  0  0
    7.4243   -8.4303    0.0000 C   0  0  0  0  0  0  0  0  0  0  0  0
    6.7010   -7.1957    0.0000 C   0  0  0  0  0  0  0  0  0  0  0  0
    8.0229   -4.8055    0.0000 O   0  0  0  0  0  0  0  0  0  0  0  0
    7.3827   -3.3048    0.0000 C   0  0  0  0  0  0  0  0  0  0  0  0
    6.7093   -8.0229    0.0000 C   0  0  0  0  0  0  0  0  0  0  0  0
    7.4201   -6.7841    0.0000 C   0  0  0  0  0  0  0  0  0  0  0  0
    4.5186   -5.3624    0.0000 C   0  0  0  0  0  0  0  0  0  0  0  0
    7.5864   -2.4984    0.0000 C   0  0  0  0  0  0  0  0  0  0  0  0
   10.2677   -8.4303    0.0000 C   0  0  0  0  0  0  0  0  0  0  0  0
    8.8418   -9.2575    0.0000 C   0  0  0  0  0  0  0  0  0  0  0  0
    8.3846   -2.2863    0.0000 C   0  0  0  0  0  0  0  0  0  0  0  0
    7.0003   -1.9247    0.0000 C   0  0  0  0  0  0  0  0  0  0  0  0
    3.9076   -4.8055    0.0000 C   0  0  0  0  0  0  0  0  0  0  0  0
    3.1219   -5.0631    0.0000 C   0  0  0  0  0  0  0  0  0  0  0  0
    9.5526   -9.6691    0.0000 C   0  0  0  0  0  0  0  0  0  0  0  0
   10.2677   -9.2575    0.0000 C   0  0  0  0  0  0  0  0  0  0  0  0
    2.5108   -4.5144    0.0000 C   0  0  0  0  0  0  0  0  0  0  0  0
    7.2081   -1.1266    0.0000 C   0  0  0  0  0  0  0  0  0  0  0  0
    8.5966   -1.4882    0.0000 C   0  0  0  0  0  0  0  0  0  0  0  0
    8.0063   -0.9021    0.0000 C   0  0  0  0  0  0  0  0  0  0  0  0
  2  1  2  0
  3  1  1  0
  4  3  1  0
  5 12  1  0
  6  2  1  0
  7  8  1  0
  8  5  1  0
  9 10  1  0
 10  5  2  0
 11  1  1  0
 12 13  1  0
 13 16  1  0
 14  2  1  0
 15  3  1  0
 16 18  2  0
 17 11  2  0
 18 24  1  0
 19 23  2  0
 20 14  1  0
 21 11  1  0
 22 15  1  0
 23 20  1  0
 24 20  2  0
 25  6  1  0
 26 22  1  0
 27 12  2  0
 28 13  2  0
 29 26  2  0
 30 26  1  0
 31 25  1  0
 32 31  1  0
 33 28  1  0
 34 33  2  0
 35 32  1  0
 36 30  2  0
 37 29  1  0
 38 36  1  0
  4  6  2  0
 19 16  1  0
 37 38  2  0
 34 27  1  0
  9  7  2  0
M  END
>  <From>  (1) 
www.bindingDB.org

>  <BindingDB Reactant_set_id>  (1) 
50061780

>  <Ligand InChI>  (1) 
InChI=1S/C30H30N6O2/c1-2-3-13-27-26(28(30(37)38)36(33-27)19-18-21-9-5-4-6-10-21)20-22-14-16-23(17-15-22)24-11-7-8-12-25(24)29-31-34-35-32-29/h4-12,14-17H,2-3,13,18-20H2,1H3,(H,37,38)(H,31,32,34,35)

>  <Ligand InChI Key>  (1) 
HHQCMWCTGPHEII-UHFFFAOYSA-N

>  <BindingDB MonomerID>  (1) 
50042570

>  <BindingDB Ligand Name>  (1) 
5-Butyl-2-phenethyl-4-[2'-(1H-tetrazol-5-yl)-biphenyl-4-ylmethyl]-2H-pyrazole-3-carboxylic acid::CHEMBL120199

>  <Target Name>  (1) 
Type-1 angiotensin II receptor

>  <Target Source Organism According to Curator or DataSource>  (1) 
Oryctolagus cuniculus

>  <Ki (nM)>  (1) 


>  <IC50 (nM)>  (1) 
 0.240000

>  <Kd (nM)>  (1) 


>  <EC50 (nM)>  (1) 


>  <kon (M-1-s-1)>  (1) 


>  <koff (s-1)>  (1) 


>  <pH>  (1) 


>  <Temp C>  (1) 


>  <Curation/DataSource>  (1) 
ChEMBL

>  <Article DOI>  (1) 
10.1021/jm00075a014

>  <BindingDB Entry DOI>  (1) 
10.7270/Q25Q4V5H

>  <PMID>  (1) 
8246227

>  <PubChem AID>  (1) 


>  <Patent Number>  (1) 


>  <Authors>  (1) 
Ashton, WT; Hutchins, SM; Greenlee, WJ; Doss, GA; Chang, RS; Lotti, VJ; Faust, KA; Chen, TB; Zingaro, GJ; Kivlighn, SD

>  <Institution>  (1) 
Merck Research Laboratories

>  <Link to Ligand in BindingDB>  (1) 
http://www.bindingdb.org/bind/chemsearch/marvin/MolStructure.jsp?monomerid=50042570

>  <Link to Ligand-Target Pair in BindingDB>  (1) 
http://www.bindingdb.org/jsp/dbsearch/PrimarySearch_ki.jsp?energyterm=kJ/mole&tag=r21&monomerid=50042570&enzyme=Type-1+angiotensin+II+receptor&column=ki&startPg=0&Increment=50&submit=Search

>  <Ligand HET ID in PDB>  (1) 


>  <PDB ID(s) for Ligand-Target Complex>  (1) 


>  <PubChem CID of Ligand>  (1) 
14971716

>  <PubChem SID of Ligand>  (1) 
103974166

>  <ChEBI ID of Ligand>  (1) 


>  <ChEMBL ID of Ligand>  (1) 
CHEMBL120199

>  <DrugBank ID of Ligand>  (1) 


>  <IUPHAR_GRAC ID of Ligand>  (1) 


>  <KEGG ID of Ligand>  (1) 


>  <ZINC ID of Ligand>  (1) 
ZINC13833919

>  <Number of Protein Chains in Target (bigger than 1 implies a multichain complex)>  (1) 
1

>  <BindingDB Target Chain Sequence>  (1) 
MMLNSSTEDGIKRIQDDCPKAGRHNYIFVMIPTLYSIIFVVGIFGNSLAVIVIYFYMKLKTVASVFLLNLALADLCFLLTLPLWAVYTAMEYRWPFGNYLCKIASASVSFNLYASVFLLTCLSIDRYLAIVHPMKSRLRRTMLVAKVTCIIIWLLAGLASLPAIIHRNVFFIENTNITVCAFHYESQNSTLPIGLGLTKNILGFLFPFLIILTSYTLIWKALKKAYEIQKNKPRNDDIFKIIMAIVLFFFFSWVPHQIFTFLDVLIQLGVIHDCRIADIVDTAMPITICIAYFNNCLNPLFYGFLGKKFKKYFLQLLKYIPPKAKSHSNLSTKMSTLSYRPSDNVSSSSKKPVPCFEVE

>  <PDB ID(s) of Target Chain>  (1) 
6DO1,6OS0,6OS1,6OS2

>  <UniProt (SwissProt) Recommended Name of Target Chain>  (1) 
Type-1 angiotensin II receptor

>  <UniProt (SwissProt) Entry Name of Target Chain>  (1) 
AGTR1_RABIT

>  <UniProt (SwissProt) Primary ID of Target Chain>  (1) 
P34976

>  <UniProt (SwissProt) Secondary ID(s) of Target Chain>  (1) 


>  <UniProt (SwissProt) Alternative ID(s) of Target Chain>  (1) 


>  <UniProt (TrEMBL) Submitted Name of Target Chain>  (1) 


>  <UniProt (TrEMBL) Entry Name of Target Chain>  (1) 


>  <UniProt (TrEMBL) Primary ID of Target Chain>  (1) 


>  <UniProt (TrEMBL) Secondary ID(s) of Target Chain>  (1) 


>  <UniProt (TrEMBL) Alternative ID(s) of Target Chain>  (1) 


$$$$
