
     RDKit          2D

 38 41  0  0  0  0  0  0  0  0999 V2000
   -1.7097    0.7381    0.0000 C   0  0  0  0  0  0  0  0  0  0  0  0
    4.0282    0.7089    0.0000 S   0  0  0  0  0  0  0  0  0  0  0  0
   -0.9966    0.3211    0.0000 N   0  0  0  0  0  0  0  0  0  0  0  0
    4.7455    1.1259    0.0000 N   0  0  0  0  0  0  0  0  0  0  0  0
   -1.9974   -0.5672    0.0000 N   0  0  0  0  0  0  0  0  0  0  0  0
   -2.3352    0.1877    0.0000 C   0  0  0  0  0  0  0  0  0  0  0  0
   -1.1759   -0.4921    0.0000 C   0  0  0  0  0  0  0  0  0  0  0  0
    5.4669    0.7131    0.0000 C   0  0  0  0  0  0  0  0  0  0  0  0
    3.3152    0.2960    0.0000 N   0  0  0  0  0  0  0  0  0  0  0  0
   -1.7847    1.5638    0.0000 C   0  0  0  0  0  0  0  0  0  0  0  0
    3.3152   -0.5296    0.0000 C   0  0  0  0  0  0  0  0  0  0  0  0
    2.5938   -0.9425    0.0000 C   0  0  0  0  0  0  0  0  0  0  0  0
   -0.2710    0.7256    0.0000 C   0  0  0  0  0  0  0  0  0  0  0  0
    4.4453   -0.0125    0.0000 O   0  0  0  0  0  0  0  0  0  0  0  0
    3.6071    1.4345    0.0000 O   0  0  0  0  0  0  0  0  0  0  0  0
    1.8807   -0.5296    0.0000 C   0  0  0  0  0  0  0  0  0  0  0  0
    5.4669   -0.1168    0.0000 O   0  0  0  0  0  0  0  0  0  0  0  0
    6.1800    1.1259    0.0000 C   0  0  0  0  0  0  0  0  0  0  0  0
   -1.1092    2.0391    0.0000 O   0  0  0  0  0  0  0  0  0  0  0  0
    1.1676   -0.9425    0.0000 C   0  0  0  0  0  0  0  0  0  0  0  0
    1.8807    0.3002    0.0000 C   0  0  0  0  0  0  0  0  0  0  0  0
    0.4546    0.3002    0.0000 C   0  0  0  0  0  0  0  0  0  0  0  0
   -2.5353    1.9140    0.0000 O   0  0  0  0  0  0  0  0  0  0  0  0
    1.1676    0.7131    0.0000 C   0  0  0  0  0  0  0  0  0  0  0  0
    0.4546   -0.5296    0.0000 C   0  0  0  0  0  0  0  0  0  0  0  0
   -0.6380   -1.1176    0.0000 C   0  0  0  0  0  0  0  0  0  0  0  0
    4.0324   -0.9425    0.0000 C   0  0  0  0  0  0  0  0  0  0  0  0
    2.6021   -1.7681    0.0000 C   0  0  0  0  0  0  0  0  0  0  0  0
    6.8930    0.7214    0.0000 C   0  0  0  0  0  0  0  0  0  0  0  0
    6.1717    1.9474    0.0000 C   0  0  0  0  0  0  0  0  0  0  0  0
   -0.9090   -1.8932    0.0000 C   0  0  0  0  0  0  0  0  0  0  0  0
   -0.3711   -2.5187    0.0000 C   0  0  0  0  0  0  0  0  0  0  0  0
    4.0324   -1.7681    0.0000 C   0  0  0  0  0  0  0  0  0  0  0  0
    3.3069   -2.1810    0.0000 C   0  0  0  0  0  0  0  0  0  0  0  0
   -0.6463   -3.2943    0.0000 C   0  0  0  0  0  0  0  0  0  0  0  0
    6.8805    2.3644    0.0000 C   0  0  0  0  0  0  0  0  0  0  0  0
    7.6061    1.1342    0.0000 C   0  0  0  0  0  0  0  0  0  0  0  0
    7.5978    1.9599    0.0000 C   0  0  0  0  0  0  0  0  0  0  0  0
  2  9  1  0
  3  1  1  0
  4  2  1  0
  5  6  1  0
  6  1  2  0
  7  3  1  0
  8  4  1  0
  9 11  1  0
 10  1  1  0
 11 12  1  0
 12 16  1  0
 13  3  1  0
 14  2  2  0
 15  2  2  0
 16 20  2  0
 17  8  2  0
 18  8  1  0
 19 10  2  0
 20 25  1  0
 21 24  2  0
 22 13  1  0
 23 10  1  0
 24 22  1  0
 25 22  2  0
 26  7  1  0
 27 11  2  0
 28 12  2  0
 29 18  2  0
 30 18  1  0
 31 26  1  0
 32 31  1  0
 33 34  2  0
 34 28  1  0
 35 32  1  0
 36 30  2  0
 37 29  1  0
 38 36  1  0
  7  5  2  0
 16 21  1  0
 27 33  1  0
 38 37  2  0
M  END
>  <From>  (1) 
www.bindingDB.org

>  <BindingDB Reactant_set_id>  (1) 
50002765

>  <Ligand InChI>  (1) 
InChI=1S/C28H28N4O5S/c1-2-3-13-26-29-18-25(28(34)35)32(26)19-20-14-16-21(17-15-20)23-11-7-8-12-24(23)30-38(36,37)31-27(33)22-9-5-4-6-10-22/h4-12,14-18,30H,2-3,13,19H2,1H3,(H,31,33)(H,34,35)

>  <Ligand InChI Key>  (1) 
ODCJVXLDEVNVEY-UHFFFAOYSA-N

>  <BindingDB MonomerID>  (1) 
50282414

>  <BindingDB Ligand Name>  (1) 
Acyl sulfonamide derivative::CHEMBL423801

>  <Target Name>  (1) 
Type-1 angiotensin II receptor

>  <Target Source Organism According to Curator or DataSource>  (1) 
Oryctolagus cuniculus

>  <Ki (nM)>  (1) 


>  <IC50 (nM)>  (1) 
 6

>  <Kd (nM)>  (1) 


>  <EC50 (nM)>  (1) 


>  <kon (M-1-s-1)>  (1) 


>  <koff (s-1)>  (1) 


>  <pH>  (1) 


>  <Temp C>  (1) 


>  <Curation/DataSource>  (1) 
ChEMBL

>  <Article DOI>  (1) 
10.1016/S0960-894X(01)81124-0

>  <BindingDB Entry DOI>  (1) 
10.7270/Q2NS0TVK

>  <PMID>  (1) 


>  <PubChem AID>  (1) 


>  <Patent Number>  (1) 


>  <Authors>  (1) 
Naylor, EM; Chakravarty, PK; Costello, CA; Chang, RS; Chen, TB; Faust, KA; Lotti, VJ; Kivlighn, SD; Zingaro, GJ; Siegl, PK; Wong, PC; Carini, DJ; Wexler, RR; Patchett, AA; Greenlee, WJ

>  <Institution>  (1) 
TBA

>  <Link to Ligand in BindingDB>  (1) 
http://www.bindingdb.org/bind/chemsearch/marvin/MolStructure.jsp?monomerid=50282414

>  <Link to Ligand-Target Pair in BindingDB>  (1) 
http://www.bindingdb.org/jsp/dbsearch/PrimarySearch_ki.jsp?energyterm=kJ/mole&tag=r21&monomerid=50282414&enzyme=Type-1+angiotensin+II+receptor&column=ki&startPg=0&Increment=50&submit=Search

>  <Ligand HET ID in PDB>  (1) 


>  <PDB ID(s) for Ligand-Target Complex>  (1) 


>  <PubChem CID of Ligand>  (1) 
44376760

>  <PubChem SID of Ligand>  (1) 
104124088

>  <ChEBI ID of Ligand>  (1) 


>  <ChEMBL ID of Ligand>  (1) 
CHEMBL423801

>  <DrugBank ID of Ligand>  (1) 


>  <IUPHAR_GRAC ID of Ligand>  (1) 


>  <KEGG ID of Ligand>  (1) 


>  <ZINC ID of Ligand>  (1) 
ZINC27849162

>  <Number of Protein Chains in Target (bigger than 1 implies a multichain complex)>  (1) 
1

>  <BindingDB Target Chain Sequence>  (1) 
MMLNSSTEDGIKRIQDDCPKAGRHNYIFVMIPTLYSIIFVVGIFGNSLAVIVIYFYMKLKTVASVFLLNLALADLCFLLTLPLWAVYTAMEYRWPFGNYLCKIASASVSFNLYASVFLLTCLSIDRYLAIVHPMKSRLRRTMLVAKVTCIIIWLLAGLASLPAIIHRNVFFIENTNITVCAFHYESQNSTLPIGLGLTKNILGFLFPFLIILTSYTLIWKALKKAYEIQKNKPRNDDIFKIIMAIVLFFFFSWVPHQIFTFLDVLIQLGVIHDCRIADIVDTAMPITICIAYFNNCLNPLFYGFLGKKFKKYFLQLLKYIPPKAKSHSNLSTKMSTLSYRPSDNVSSSSKKPVPCFEVE

>  <PDB ID(s) of Target Chain>  (1) 
6DO1,6OS0,6OS1,6OS2

>  <UniProt (SwissProt) Recommended Name of Target Chain>  (1) 
Type-1 angiotensin II receptor

>  <UniProt (SwissProt) Entry Name of Target Chain>  (1) 
AGTR1_RABIT

>  <UniProt (SwissProt) Primary ID of Target Chain>  (1) 
P34976

>  <UniProt (SwissProt) Secondary ID(s) of Target Chain>  (1) 


>  <UniProt (SwissProt) Alternative ID(s) of Target Chain>  (1) 


>  <UniProt (TrEMBL) Submitted Name of Target Chain>  (1) 


>  <UniProt (TrEMBL) Entry Name of Target Chain>  (1) 


>  <UniProt (TrEMBL) Primary ID of Target Chain>  (1) 


>  <UniProt (TrEMBL) Secondary ID(s) of Target Chain>  (1) 


>  <UniProt (TrEMBL) Alternative ID(s) of Target Chain>  (1) 


$$$$
