
     RDKit          2D

 34 38  0  0  0  0  0  0  0  0999 V2000
    4.7042   -2.0292    0.0000 C   0  0  0  0  0  0  0  0  0  0  0  0
    5.4167   -2.4417    0.0000 N   0  0  0  0  0  0  0  0  0  0  0  0
    4.7125   -1.2042    0.0000 C   0  0  0  0  0  0  0  0  0  0  0  0
    8.9875   -3.6792    0.0000 C   0  0  0  0  0  0  0  0  0  0  0  0
    4.0000   -0.7917    0.0000 C   0  0  0  0  0  0  0  0  0  0  0  0
    3.9917   -2.4417    0.0000 N   0  0  0  0  0  0  0  0  0  0  0  0
    8.3417   -3.1667    0.0000 N   0  0  0  0  0  0  0  0  0  0  0  0
    8.6375   -2.4000    0.0000 N   0  0  0  0  0  0  0  0  0  0  0  0
    9.6750   -3.2292    0.0000 N   0  0  0  0  0  0  0  0  0  0  0  0
    9.4500   -2.4375    0.0000 N   0  0  0  0  0  0  0  0  0  0  0  0
    6.1292   -2.0375    0.0000 C   0  0  0  0  0  0  0  0  0  0  0  0
    3.2792   -1.2000    0.0000 N   0  0  0  0  0  0  0  0  0  0  0  0
    8.9875   -4.5042    0.0000 C   0  0  0  0  0  0  0  0  0  0  0  0
    3.2792   -2.0292    0.0000 C   0  0  0  0  0  0  0  0  0  0  0  0
    4.0042    0.0333    0.0000 C   0  0  0  0  0  0  0  0  0  0  0  0
    8.2750   -4.9250    0.0000 C   0  0  0  0  0  0  0  0  0  0  0  0
    5.4250   -0.7917    0.0000 C   0  0  0  0  0  0  0  0  0  0  0  0
    5.4125   -3.2667    0.0000 C   0  0  0  0  0  0  0  0  0  0  0  0
    7.5542   -4.5042    0.0000 C   0  0  0  0  0  0  0  0  0  0  0  0
    6.1375   -1.2125    0.0000 C   0  0  0  0  0  0  0  0  0  0  0  0
    6.8417   -2.4500    0.0000 O   0  0  0  0  0  0  0  0  0  0  0  0
    3.2917    0.4583    0.0000 O   0  0  0  0  0  0  0  0  0  0  0  0
    6.8417   -4.9250    0.0000 C   0  0  0  0  0  0  0  0  0  0  0  0
    7.5542   -3.6792    0.0000 C   0  0  0  0  0  0  0  0  0  0  0  0
    6.1250   -3.6792    0.0000 C   0  0  0  0  0  0  0  0  0  0  0  0
    4.7167    0.4458    0.0000 O   0  0  0  0  0  0  0  0  0  0  0  0
    6.1250   -4.5042    0.0000 C   0  0  0  0  0  0  0  0  0  0  0  0
    6.8417   -3.2667    0.0000 C   0  0  0  0  0  0  0  0  0  0  0  0
    2.5625   -2.4375    0.0000 C   0  0  0  0  0  0  0  0  0  0  0  0
    9.7042   -4.9250    0.0000 C   0  0  0  0  0  0  0  0  0  0  0  0
    8.2750   -5.7542    0.0000 C   0  0  0  0  0  0  0  0  0  0  0  0
    1.8500   -2.0167    0.0000 O   0  0  0  0  0  0  0  0  0  0  0  0
    8.9875   -6.1667    0.0000 C   0  0  0  0  0  0  0  0  0  0  0  0
    9.7042   -5.7542    0.0000 C   0  0  0  0  0  0  0  0  0  0  0  0
  2  1  1  0
  3  1  1  0
  4 13  1  0
  5  3  2  0
  6  1  2  0
  7  4  1  0
  8  7  1  0
  9  4  2  0
 10  9  1  0
 11  2  1  0
 12 14  2  0
 13 16  1  0
 14  6  1  0
 15  5  1  0
 16 19  1  0
 17  3  1  0
 18  2  1  0
 19 24  2  0
 20 17  1  0
 21 11  2  0
 22 15  2  0
 23 27  2  0
 24 28  1  0
 25 18  1  0
 26 15  1  0
 27 25  1  0
 28 25  2  0
 29 14  1  0
 30 13  2  0
 31 16  2  0
 32 29  1  0
 33 31  1  0
 34 33  2  0
 12  5  1  0
 20 11  1  0
 19 23  1  0
 30 34  1  0
  8 10  2  0
M  END
>  <From>  (1) 
www.bindingDB.org

>  <BindingDB Reactant_set_id>  (1) 
50812188

>  <Ligand InChI>  (1) 
InChI=1S/C23H19N7O4/c31-12-18-24-20(23(33)34)17-9-10-19(32)30(22(17)25-18)11-13-5-7-14(8-6-13)15-3-1-2-4-16(15)21-26-28-29-27-21/h1-8,31H,9-12H2,(H,33,34)(H,26,27,28,29)

>  <Ligand InChI Key>  (1) 
DBYJOZNUSPQPFO-UHFFFAOYSA-N

>  <BindingDB MonomerID>  (1) 
50128502

>  <BindingDB Ligand Name>  (1) 
2-Hydroxymethyl-7-oxo-8-[2'-(2H-tetrazol-5-yl)-biphenyl-4-ylmethyl]-5,6,7,8-tetrahydro-pyrido[2,3-d]pyrimidine-4-carboxylic acid::CHEMBL74347

>  <Target Name>  (1) 
Type-1 angiotensin II receptor

>  <Target Source Organism According to Curator or DataSource>  (1) 
Homo sapiens

>  <Ki (nM)>  (1) 


>  <IC50 (nM)>  (1) 
 44

>  <Kd (nM)>  (1) 


>  <EC50 (nM)>  (1) 


>  <kon (M-1-s-1)>  (1) 


>  <koff (s-1)>  (1) 


>  <pH>  (1) 


>  <Temp C>  (1) 


>  <Curation/DataSource>  (1) 
ChEMBL

>  <Article DOI>  (1) 
10.1021/jm0204237

>  <BindingDB Entry DOI>  (1) 
10.7270/Q2154HSP

>  <PMID>  (1) 
12773029

>  <PubChem AID>  (1) 


>  <Patent Number>  (1) 


>  <Authors>  (1) 
Schmidt, B; Schieffer, B

>  <Institution>  (1) 
Technische Universit&#163;t Darmstadt

>  <Link to Ligand in BindingDB>  (1) 
http://www.bindingdb.org/bind/chemsearch/marvin/MolStructure.jsp?monomerid=50128502

>  <Link to Ligand-Target Pair in BindingDB>  (1) 
http://www.bindingdb.org/jsp/dbsearch/PrimarySearch_ki.jsp?energyterm=kJ/mole&tag=r21&monomerid=50128502&enzyme=Type-1+angiotensin+II+receptor&column=ki&startPg=0&Increment=50&submit=Search

>  <Ligand HET ID in PDB>  (1) 


>  <PDB ID(s) for Ligand-Target Complex>  (1) 


>  <PubChem CID of Ligand>  (1) 
44312700

>  <PubChem SID of Ligand>  (1) 
104020266

>  <ChEBI ID of Ligand>  (1) 


>  <ChEMBL ID of Ligand>  (1) 
CHEMBL74347

>  <DrugBank ID of Ligand>  (1) 


>  <IUPHAR_GRAC ID of Ligand>  (1) 


>  <KEGG ID of Ligand>  (1) 


>  <ZINC ID of Ligand>  (1) 
ZINC26377483

>  <Number of Protein Chains in Target (bigger than 1 implies a multichain complex)>  (1) 
1

>  <BindingDB Target Chain Sequence>  (1) 
MILNSSTEDGIKRIQDDCPKAGRHNYIFVMIPTLYSIIFVVGIFGNSLVVIVIYFYMKLKTVASVFLLNLALADLCFLLTLPLWAVYTAMEYRWPFGNYLCKIASASVSFNLYASVFLLTCLSIDRYLAIVHPMKSRLRRTMLVAKVTCIIIWLLAGLASLPAIIHRNVFFIENTNITVCAFHYESQNSTLPIGLGLTKNILGFLFPFLIILTSYTLIWKALKKAYEIQKNKPRNDDIFKIIMAIVLFFFFSWIPHQIFTFLDVLIQLGIIRDCRIADIVDTAMPITICIAYFNNCLNPLFYGFLGKKFKRYFLQLLKYIPPKAKSHSNLSTKMSTLSYRPSDNVSSSTKKPAPCFEVE

>  <PDB ID(s) of Target Chain>  (1) 
6DO1,6OS0,6OS1,6OS2

>  <UniProt (SwissProt) Recommended Name of Target Chain>  (1) 
Type-1 angiotensin II receptor

>  <UniProt (SwissProt) Entry Name of Target Chain>  (1) 
AGTR1_HUMAN

>  <UniProt (SwissProt) Primary ID of Target Chain>  (1) 
P30556

>  <UniProt (SwissProt) Secondary ID(s) of Target Chain>  (1) 
Q13725 Q8TBK4

>  <UniProt (SwissProt) Alternative ID(s) of Target Chain>  (1) 


>  <UniProt (TrEMBL) Submitted Name of Target Chain>  (1) 


>  <UniProt (TrEMBL) Entry Name of Target Chain>  (1) 


>  <UniProt (TrEMBL) Primary ID of Target Chain>  (1) 


>  <UniProt (TrEMBL) Secondary ID(s) of Target Chain>  (1) 


>  <UniProt (TrEMBL) Alternative ID(s) of Target Chain>  (1) 


$$$$
