
     RDKit          2D

 40 44  0  0  0  0  0  0  0  0999 V2000
    5.4875   -4.8292    0.0000 N   0  0  0  0  0  0  0  0  0  0  0  0
    4.7750   -4.4125    0.0000 C   0  0  0  0  0  0  0  0  0  0  0  0
    4.0625   -4.8292    0.0000 C   0  0  0  0  0  0  0  0  0  0  0  0
    5.4875   -5.6625    0.0000 C   0  0  0  0  0  0  0  0  0  0  0  0
    4.7750   -6.0750    0.0000 N   0  0  0  0  0  0  0  0  0  0  0  0
    8.3375   -7.3125    0.0000 C   0  0  0  0  0  0  0  0  0  0  0  0
    7.5875   -6.9750    0.0000 N   0  0  0  0  0  0  0  0  0  0  0  0
    7.0292   -7.5875    0.0000 N   0  0  0  0  0  0  0  0  0  0  0  0
    8.2500   -8.1375    0.0000 N   0  0  0  0  0  0  0  0  0  0  0  0
    4.0542   -5.6542    0.0000 C   0  0  0  0  0  0  0  0  0  0  0  0
    7.4417   -8.3000    0.0000 N   0  0  0  0  0  0  0  0  0  0  0  0
    9.0542   -6.9000    0.0000 C   0  0  0  0  0  0  0  0  0  0  0  0
    1.9167   -3.6000    0.0000 C   0  0  0  0  0  0  0  0  0  0  0  0
    9.0625   -6.0750    0.0000 C   0  0  0  0  0  0  0  0  0  0  0  0
    6.2042   -4.4250    0.0000 C   0  0  0  0  0  0  0  0  0  0  0  0
    3.3417   -4.4167    0.0000 C   0  0  0  0  0  0  0  0  0  0  0  0
    1.9167   -4.4250    0.0000 N   0  0  0  0  0  0  0  0  0  0  0  0
    4.7750   -3.5875    0.0000 O   0  0  0  0  0  0  0  0  0  0  0  0
    8.3417   -5.6625    0.0000 C   0  0  0  0  0  0  0  0  0  0  0  0
    2.6292   -4.8292    0.0000 C   0  0  0  0  0  0  0  0  0  0  0  0
    1.2000   -3.1875    0.0000 O   0  0  0  0  0  0  0  0  0  0  0  0
    3.3417   -6.0750    0.0000 C   0  0  0  0  0  0  0  0  0  0  0  0
    2.6292   -3.1792    0.0000 O   0  0  0  0  0  0  0  0  0  0  0  0
    7.6250   -6.0750    0.0000 C   0  0  0  0  0  0  0  0  0  0  0  0
    8.3417   -4.8375    0.0000 C   0  0  0  0  0  0  0  0  0  0  0  0
    6.9167   -4.8375    0.0000 C   0  0  0  0  0  0  0  0  0  0  0  0
    2.6292   -5.6625    0.0000 C   0  0  0  0  0  0  0  0  0  0  0  0
    6.2000   -6.0750    0.0000 C   0  0  0  0  0  0  0  0  0  0  0  0
    7.6292   -4.4250    0.0000 C   0  0  0  0  0  0  0  0  0  0  0  0
    6.9125   -5.6625    0.0000 C   0  0  0  0  0  0  0  0  0  0  0  0
    2.6292   -2.3542    0.0000 C   0  0  0  0  0  0  0  0  0  0  0  0
    9.7667   -7.3125    0.0000 C   0  0  0  0  0  0  0  0  0  0  0  0
    9.7667   -5.6625    0.0000 C   0  0  0  0  0  0  0  0  0  0  0  0
    3.3417   -1.9417    0.0000 C   0  0  0  0  0  0  0  0  0  0  0  0
    6.2000   -6.9000    0.0000 C   0  0  0  0  0  0  0  0  0  0  0  0
    4.0542   -2.3542    0.0000 C   0  0  0  0  0  0  0  0  0  0  0  0
    3.3417   -1.1167    0.0000 C   0  0  0  0  0  0  0  0  0  0  0  0
   10.4875   -6.9000    0.0000 C   0  0  0  0  0  0  0  0  0  0  0  0
   10.4792   -6.0750    0.0000 C   0  0  0  0  0  0  0  0  0  0  0  0
    5.4875   -7.3125    0.0000 C   0  0  0  0  0  0  0  0  0  0  0  0
  2  1  1  0
  3  2  1  0
  4  1  1  0
  5  4  2  0
  6 12  1  0
  7  6  1  0
  8  7  1  0
  9  6  2  0
 10  5  1  0
 11  9  1  0
 12 14  1  0
 13 17  1  0
 14 19  1  0
 15  1  1  0
 16  3  2  0
 17 20  1  0
 18  2  2  0
 19 24  2  0
 20 16  1  0
 21 13  2  0
 22 10  2  0
 23 13  1  0
 24 30  1  0
 25 29  2  0
 26 15  1  0
 27 22  1  0
 28  4  1  0
 29 26  1  0
 30 26  2  0
 31 23  1  0
 32 12  2  0
 33 14  2  0
 34 31  1  0
 35 28  1  0
 36 34  1  0
 37 34  1  0
 38 39  2  0
 39 33  1  0
 40 35  1  0
  3 10  1  0
 25 19  1  0
 20 27  2  0
 32 38  1  0
  8 11  2  0
M  END
>  <From>  (1) 
www.bindingDB.org

>  <BindingDB Reactant_set_id>  (1) 
50061167

>  <Ligand InChI>  (1) 
InChI=1S/C30H31N7O3/c1-4-7-27-32-26-15-14-22(31-30(39)40-18-19(2)3)16-25(26)29(38)37(27)17-20-10-12-21(13-11-20)23-8-5-6-9-24(23)28-33-35-36-34-28/h5-6,8-16,19H,4,7,17-18H2,1-3H3,(H,31,39)(H,33,34,35,36)

>  <Ligand InChI Key>  (1) 
GHNCSULBJRZIGK-UHFFFAOYSA-N

>  <BindingDB MonomerID>  (1) 
50041964

>  <BindingDB Ligand Name>  (1) 
CHEMBL110265::{4-Oxo-2-propyl-3-[2'-(2H-tetrazol-5-yl)-biphenyl-4-ylmethyl]-3,4-dihydro-quinazolin-6-yl}-carbamic acid isobutyl ester

>  <Target Name>  (1) 
Type-1 angiotensin II receptor

>  <Target Source Organism According to Curator or DataSource>  (1) 
Oryctolagus cuniculus

>  <Ki (nM)>  (1) 


>  <IC50 (nM)>  (1) 
 3.9

>  <Kd (nM)>  (1) 


>  <EC50 (nM)>  (1) 


>  <kon (M-1-s-1)>  (1) 


>  <koff (s-1)>  (1) 


>  <pH>  (1) 


>  <Temp C>  (1) 


>  <Curation/DataSource>  (1) 
ChEMBL

>  <Article DOI>  (1) 
10.1021/jm00073a024

>  <BindingDB Entry DOI>  (1) 
10.7270/Q2QR4W6P

>  <PMID>  (1) 
8230109

>  <PubChem AID>  (1) 


>  <Patent Number>  (1) 


>  <Authors>  (1) 
de Laszlo, SE; Quagliato, CS; Greenlee, WJ; Patchett, AA; Chang, RS; Lotti, VJ; Chen, TB; Scheck, SA; Faust, KA; Kivlighn, SS

>  <Institution>  (1) 
Merck Research Laboratories

>  <Link to Ligand in BindingDB>  (1) 
http://www.bindingdb.org/bind/chemsearch/marvin/MolStructure.jsp?monomerid=50041964

>  <Link to Ligand-Target Pair in BindingDB>  (1) 
http://www.bindingdb.org/jsp/dbsearch/PrimarySearch_ki.jsp?energyterm=kJ/mole&tag=r21&monomerid=50041964&enzyme=Type-1+angiotensin+II+receptor&column=ki&startPg=0&Increment=50&submit=Search

>  <Ligand HET ID in PDB>  (1) 


>  <PDB ID(s) for Ligand-Target Complex>  (1) 


>  <PubChem CID of Ligand>  (1) 
44338833

>  <PubChem SID of Ligand>  (1) 
103973643

>  <ChEBI ID of Ligand>  (1) 


>  <ChEMBL ID of Ligand>  (1) 
CHEMBL110265

>  <DrugBank ID of Ligand>  (1) 


>  <IUPHAR_GRAC ID of Ligand>  (1) 


>  <KEGG ID of Ligand>  (1) 


>  <ZINC ID of Ligand>  (1) 
ZINC26943294

>  <Number of Protein Chains in Target (bigger than 1 implies a multichain complex)>  (1) 
1

>  <BindingDB Target Chain Sequence>  (1) 
MMLNSSTEDGIKRIQDDCPKAGRHNYIFVMIPTLYSIIFVVGIFGNSLAVIVIYFYMKLKTVASVFLLNLALADLCFLLTLPLWAVYTAMEYRWPFGNYLCKIASASVSFNLYASVFLLTCLSIDRYLAIVHPMKSRLRRTMLVAKVTCIIIWLLAGLASLPAIIHRNVFFIENTNITVCAFHYESQNSTLPIGLGLTKNILGFLFPFLIILTSYTLIWKALKKAYEIQKNKPRNDDIFKIIMAIVLFFFFSWVPHQIFTFLDVLIQLGVIHDCRIADIVDTAMPITICIAYFNNCLNPLFYGFLGKKFKKYFLQLLKYIPPKAKSHSNLSTKMSTLSYRPSDNVSSSSKKPVPCFEVE

>  <PDB ID(s) of Target Chain>  (1) 
6DO1,6OS0,6OS1,6OS2

>  <UniProt (SwissProt) Recommended Name of Target Chain>  (1) 
Type-1 angiotensin II receptor

>  <UniProt (SwissProt) Entry Name of Target Chain>  (1) 
AGTR1_RABIT

>  <UniProt (SwissProt) Primary ID of Target Chain>  (1) 
P34976

>  <UniProt (SwissProt) Secondary ID(s) of Target Chain>  (1) 


>  <UniProt (SwissProt) Alternative ID(s) of Target Chain>  (1) 


>  <UniProt (TrEMBL) Submitted Name of Target Chain>  (1) 


>  <UniProt (TrEMBL) Entry Name of Target Chain>  (1) 


>  <UniProt (TrEMBL) Primary ID of Target Chain>  (1) 


>  <UniProt (TrEMBL) Secondary ID(s) of Target Chain>  (1) 


>  <UniProt (TrEMBL) Alternative ID(s) of Target Chain>  (1) 


$$$$
