
     RDKit          2D

 31 34  0  0  0  0  0  0  0  0999 V2000
    4.0173    0.8378    0.0000 N   0  0  0  0  0  0  0  0  0  0  0  0
    4.6830    1.3257    0.0000 C   0  0  0  0  0  0  0  0  0  0  0  0
    3.5983    2.1005    0.0000 N   0  0  0  0  0  0  0  0  0  0  0  0
    3.3458    1.3199    0.0000 C   0  0  0  0  0  0  0  0  0  0  0  0
    4.4247    2.1119    0.0000 C   0  0  0  0  0  0  0  0  0  0  0  0
    5.4807    1.1650    0.0000 N   0  0  0  0  0  0  0  0  0  0  0  0
    4.9642    2.7203    0.0000 C   0  0  0  0  0  0  0  0  0  0  0  0
    1.1593   -2.4792    0.0000 C   0  0  0  0  0  0  0  0  0  0  0  0
    1.8766   -2.8924    0.0000 C   0  0  0  0  0  0  0  0  0  0  0  0
    4.0173    0.0114    0.0000 C   0  0  0  0  0  0  0  0  0  0  0  0
    1.1593   -1.6528    0.0000 O   0  0  0  0  0  0  0  0  0  0  0  0
    6.0317    1.7733    0.0000 C   0  0  0  0  0  0  0  0  0  0  0  0
    5.7734    2.5595    0.0000 C   0  0  0  0  0  0  0  0  0  0  0  0
    2.5883   -2.4792    0.0000 O   0  0  0  0  0  0  0  0  0  0  0  0
    0.4476   -2.8924    0.0000 C   0  0  0  0  0  0  0  0  0  0  0  0
    1.8824   -1.2396    0.0000 C   0  0  0  0  0  0  0  0  0  0  0  0
    3.3114   -0.4018    0.0000 C   0  0  0  0  0  0  0  0  0  0  0  0
    1.8766   -3.7188    0.0000 O   0  0  0  0  0  0  0  0  0  0  0  0
    2.5653    1.0617    0.0000 C   0  0  0  0  0  0  0  0  0  0  0  0
    1.8824   -0.4132    0.0000 C   0  0  0  0  0  0  0  0  0  0  0  0
    2.5883   -1.6528    0.0000 C   0  0  0  0  0  0  0  0  0  0  0  0
    2.5883    0.0114    0.0000 C   0  0  0  0  0  0  0  0  0  0  0  0
    3.3114   -1.2396    0.0000 C   0  0  0  0  0  0  0  0  0  0  0  0
    4.7060    3.5064    0.0000 C   0  0  0  0  0  0  0  0  0  0  0  0
    6.8409    1.6126    0.0000 C   0  0  0  0  0  0  0  0  0  0  0  0
    0.4476   -3.7074    0.0000 C   0  0  0  0  0  0  0  0  0  0  0  0
   -0.2697   -2.4678    0.0000 C   0  0  0  0  0  0  0  0  0  0  0  0
    1.9455    1.6012    0.0000 C   0  0  0  0  0  0  0  0  0  0  0  0
   -0.2697   -4.1206    0.0000 C   0  0  0  0  0  0  0  0  0  0  0  0
   -0.9814   -2.8810    0.0000 C   0  0  0  0  0  0  0  0  0  0  0  0
   -0.9814   -3.7074    0.0000 C   0  0  0  0  0  0  0  0  0  0  0  0
  2  1  1  0
  3  4  2  0
  4  1  1  0
  5  2  2  0
  6  2  1  0
  7  5  1  0
  8 11  1  0
  9  8  1  0
 10  1  1  0
 11 16  1  0
 12  6  2  0
 13 12  1  0
 14  9  2  0
 15  8  1  0
 16 21  2  0
 17 10  1  0
 18  9  1  0
 19  4  1  0
 20 22  2  0
 21 23  1  0
 22 17  1  0
 23 17  2  0
 24  7  1  0
 25 12  1  0
 26 15  2  0
 27 15  1  0
 28 19  1  0
 29 26  1  0
 30 27  2  0
 31 30  1  0
  5  3  1  0
 20 16  1  0
 13  7  2  0
 31 29  2  0
M  END
>  <From>  (1) 
www.bindingDB.org

>  <BindingDB Reactant_set_id>  (1) 
50003615

>  <Ligand InChI>  (1) 
InChI=1S/C25H25N3O3/c1-4-21-27-22-16(2)14-17(3)26-24(22)28(21)15-18-10-12-20(13-11-18)31-23(25(29)30)19-8-6-5-7-9-19/h5-14,23H,4,15H2,1-3H3,(H,29,30)

>  <Ligand InChI Key>  (1) 
LEBQJIIQZNRPHY-UHFFFAOYSA-N

>  <BindingDB MonomerID>  (1) 
50284457

>  <BindingDB Ligand Name>  (1) 
CHEMBL15671::[4-(2-Ethyl-5,7-dimethyl-imidazo[4,5-b]pyridin-3-ylmethyl)-phenoxy]-phenyl-acetic acid

>  <Target Name>  (1) 
Type-1 angiotensin II receptor

>  <Target Source Organism According to Curator or DataSource>  (1) 
Oryctolagus cuniculus

>  <Ki (nM)>  (1) 


>  <IC50 (nM)>  (1) 
 29

>  <Kd (nM)>  (1) 


>  <EC50 (nM)>  (1) 


>  <kon (M-1-s-1)>  (1) 


>  <koff (s-1)>  (1) 


>  <pH>  (1) 


>  <Temp C>  (1) 


>  <Curation/DataSource>  (1) 
ChEMBL

>  <Article DOI>  (1) 
10.1016/0960-894X(95)00185-V

>  <BindingDB Entry DOI>  (1) 
10.7270/Q2J67GV9

>  <PMID>  (1) 


>  <PubChem AID>  (1) 


>  <Patent Number>  (1) 


>  <Authors>  (1) 
Walsh, TF; Fitch, KJ; Chang, RS; Faust, KA; Chen, TB; Kivlighn, SD; Zingaro, GJ; Lotti, VJ; Siegl, PK; Patchett, AA; Greenlee, WJ

>  <Institution>  (1) 
TBA

>  <Link to Ligand in BindingDB>  (1) 
http://www.bindingdb.org/bind/chemsearch/marvin/MolStructure.jsp?monomerid=50284457

>  <Link to Ligand-Target Pair in BindingDB>  (1) 
http://www.bindingdb.org/jsp/dbsearch/PrimarySearch_ki.jsp?energyterm=kJ/mole&tag=r21&monomerid=50284457&enzyme=Type-1+angiotensin+II+receptor&column=ki&startPg=0&Increment=50&submit=Search

>  <Ligand HET ID in PDB>  (1) 


>  <PDB ID(s) for Ligand-Target Complex>  (1) 


>  <PubChem CID of Ligand>  (1) 
22407453

>  <PubChem SID of Ligand>  (1) 
104126114

>  <ChEBI ID of Ligand>  (1) 


>  <ChEMBL ID of Ligand>  (1) 
CHEMBL15671

>  <DrugBank ID of Ligand>  (1) 


>  <IUPHAR_GRAC ID of Ligand>  (1) 


>  <KEGG ID of Ligand>  (1) 


>  <ZINC ID of Ligand>  (1) 
ZINC36175957

>  <Number of Protein Chains in Target (bigger than 1 implies a multichain complex)>  (1) 
1

>  <BindingDB Target Chain Sequence>  (1) 
MMLNSSTEDGIKRIQDDCPKAGRHNYIFVMIPTLYSIIFVVGIFGNSLAVIVIYFYMKLKTVASVFLLNLALADLCFLLTLPLWAVYTAMEYRWPFGNYLCKIASASVSFNLYASVFLLTCLSIDRYLAIVHPMKSRLRRTMLVAKVTCIIIWLLAGLASLPAIIHRNVFFIENTNITVCAFHYESQNSTLPIGLGLTKNILGFLFPFLIILTSYTLIWKALKKAYEIQKNKPRNDDIFKIIMAIVLFFFFSWVPHQIFTFLDVLIQLGVIHDCRIADIVDTAMPITICIAYFNNCLNPLFYGFLGKKFKKYFLQLLKYIPPKAKSHSNLSTKMSTLSYRPSDNVSSSSKKPVPCFEVE

>  <PDB ID(s) of Target Chain>  (1) 
6DO1,6OS0,6OS1,6OS2

>  <UniProt (SwissProt) Recommended Name of Target Chain>  (1) 
Type-1 angiotensin II receptor

>  <UniProt (SwissProt) Entry Name of Target Chain>  (1) 
AGTR1_RABIT

>  <UniProt (SwissProt) Primary ID of Target Chain>  (1) 
P34976

>  <UniProt (SwissProt) Secondary ID(s) of Target Chain>  (1) 


>  <UniProt (SwissProt) Alternative ID(s) of Target Chain>  (1) 


>  <UniProt (TrEMBL) Submitted Name of Target Chain>  (1) 


>  <UniProt (TrEMBL) Entry Name of Target Chain>  (1) 


>  <UniProt (TrEMBL) Primary ID of Target Chain>  (1) 


>  <UniProt (TrEMBL) Secondary ID(s) of Target Chain>  (1) 


>  <UniProt (TrEMBL) Alternative ID(s) of Target Chain>  (1) 


$$$$
