00249001.cdx
     RDKit          2D

 40 44  0  0  0  0  0  0  0  0999 V2000
   -1.1093    0.8764    0.0000 C   0  0  0  0  0  0  0  0  0  0  0  0
   -0.8958    1.6733    0.0000 O   0  0  0  0  0  0  0  0  0  0  0  0
   -1.9062    0.6629    0.0000 N   0  0  0  0  0  0  0  0  0  0  0  0
    1.3509   -0.7051    0.0000 C   0  0  0  0  0  0  0  0  0  0  0  0
    1.5644   -1.5020    0.0000 C   0  0  0  0  0  0  0  0  0  0  0  0
    2.3613   -1.7155    0.0000 C   0  0  0  0  0  0  0  0  0  0  0  0
    2.9447   -1.1322    0.0000 C   0  0  0  0  0  0  0  0  0  0  0  0
    2.7312   -0.3353    0.0000 C   0  0  0  0  0  0  0  0  0  0  0  0
    1.9343   -0.1217    0.0000 C   0  0  0  0  0  0  0  0  0  0  0  0
    2.5749   -2.5124    0.0000 C   0  0  0  0  0  0  0  0  0  0  0  0
   -2.4895    1.2462    0.0000 C   0  0  0  0  0  0  0  0  0  0  0  0
   -2.4895    2.0712    0.0000 C   0  0  0  0  0  0  0  0  0  0  0  0
   -3.3145    2.0712    0.0000 C   0  0  0  0  0  0  0  0  0  0  0  0
   -3.3145    1.2462    0.0000 C   0  0  0  0  0  0  0  0  0  0  0  0
   -3.8979    2.6546    0.0000 C   0  0  0  0  0  0  0  0  0  0  0  0
   -3.6844    3.4515    0.0000 O   0  0  0  0  0  0  0  0  0  0  0  0
   -4.6948    2.4411    0.0000 O   0  0  0  0  0  0  0  0  0  0  0  0
    0.9811   -2.0854    0.0000 C   0  0  0  0  0  0  0  0  0  0  0  0
    3.7416   -1.3457    0.0000 S   0  0  0  0  0  0  0  0  0  0  0  0
    4.3249   -0.7623    0.0000 N   0  0  0  0  0  0  0  0  0  0  0  0
    4.1114    0.0346    0.0000 C   0  0  0  0  0  0  0  0  0  0  0  0
    4.6948    0.6179    0.0000 C   0  0  0  0  0  0  0  0  0  0  0  0
    3.3145    0.2481    0.0000 C   0  0  0  0  0  0  0  0  0  0  0  0
    3.8979    0.8315    0.0000 C   0  0  0  0  0  0  0  0  0  0  0  0
    3.5281   -2.1426    0.0000 O   0  0  0  0  0  0  0  0  0  0  0  0
    4.3249   -1.9290    0.0000 O   0  0  0  0  0  0  0  0  0  0  0  0
    1.1946   -2.8822    0.0000 C   0  0  0  0  0  0  0  0  0  0  0  0
    1.9915   -3.0958    0.0000 C   0  0  0  0  0  0  0  0  0  0  0  0
    0.2991    0.2930    0.0000 S   0  0  0  0  0  0  0  0  0  0  0  0
   -0.5259    0.2930    0.0000 C   0  0  0  0  0  0  0  0  0  0  0  0
   -0.7809   -0.4916    0.0000 N   0  0  0  0  0  0  0  0  0  0  0  0
   -0.1134   -0.9765    0.0000 C   0  0  0  0  0  0  0  0  0  0  0  0
    0.5540   -0.4916    0.0000 C   0  0  0  0  0  0  0  0  0  0  0  0
   -0.1134   -1.8015    0.0000 C   0  0  0  0  0  0  0  0  0  0  0  0
   -0.8279   -2.2140    0.0000 C   0  0  0  0  0  0  0  0  0  0  0  0
   -1.5424   -1.8015    0.0000 C   0  0  0  0  0  0  0  0  0  0  0  0
   -2.2568   -2.2140    0.0000 C   0  0  0  0  0  0  0  0  0  0  0  0
   -2.2568   -3.0390    0.0000 C   0  0  0  0  0  0  0  0  0  0  0  0
   -1.5424   -3.4515    0.0000 C   0  0  0  0  0  0  0  0  0  0  0  0
   -0.8279   -3.0390    0.0000 C   0  0  0  0  0  0  0  0  0  0  0  0
 30  1  1  0
  1  2  2  0
  1  3  1  0
 33  4  1  0
  4  5  2  0
  5  6  1  0
  6  7  2  0
  7  8  1  0
  8  9  2  0
  9  4  1  0
  6 10  1  0
 11  3  1  1
 11 12  1  0
 13 12  1  0
 13 14  1  0
 11 14  1  0
 13 15  1  6
 15 16  1  0
 15 17  2  0
  5 18  1  0
  7 19  1  0
 19 20  1  0
 20 21  1  0
 21 22  1  0
 21 23  1  0
 21 24  1  0
 19 25  2  0
 19 26  2  0
 18 27  2  0
 27 28  1  0
 28 10  2  0
 29 30  1  0
 30 31  2  0
 31 32  1  0
 32 33  2  0
 33 29  1  0
 32 34  1  0
 34 35  1  0
 35 36  1  0
 36 37  1  0
 37 38  1  0
 38 39  1  0
 39 40  1  0
 40 35  1  0
M  END
>  <From>  (1) 
www.bindingDB.org

>  <BindingDB Reactant_set_id>  (1) 
50916479

>  <Ligand InChI>  (1) 
InChI=1S/C30H37N3O5S2/c1-30(2,3)33-40(37,38)25-14-13-23(21-11-7-8-12-22(21)25)26-24(15-18-9-5-4-6-10-18)32-28(39-26)27(34)31-20-16-19(17-20)29(35)36/h7-8,11-14,18-20,33H,4-6,9-10,15-17H2,1-3H3,(H,31,34)(H,35,36)/t19-,20-

>  <Ligand InChI Key>  (1) 
KYIGOCCCBXRHNJ-MXVIHJGJSA-N

>  <BindingDB MonomerID>  (1) 
392076

>  <BindingDB Ligand Name>  (1) 
US10301272, Example 7/9

>  <Target Name>  (1) 
Type-1 angiotensin II receptor

>  <Target Source Organism According to Curator or DataSource>  (1) 
Homo sapiens

>  <Ki (nM)>  (1) 


>  <IC50 (nM)>  (1) 
 0.470000

>  <Kd (nM)>  (1) 


>  <EC50 (nM)>  (1) 


>  <kon (M-1-s-1)>  (1) 


>  <koff (s-1)>  (1) 


>  <pH>  (1) 


>  <Temp C>  (1) 


>  <Curation/DataSource>  (1) 
ChEMBL

>  <Article DOI>  (1) 
10.1016/j.bmcl.2018.03.093

>  <BindingDB Entry DOI>  (1) 
10.7270/Q27W6FPC

>  <PMID>  (1) 
29631962

>  <PubChem AID>  (1) 


>  <Patent Number>  (1) 


>  <Authors>  (1) 
Gege, C; Cummings, MD; Albers, M; Kinzel, O; Kleymann, G; Schlüter, T; Steeneck, C; Nelen, MI; Milligan, C; Spurlino, J; Xue, X; Leonard, K; Edwards, JP; Fourie, A; Goldberg, SD; Hoffmann, T

>  <Institution>  (1) 
Phenex Pharmaceuticals AG

>  <Link to Ligand in BindingDB>  (1) 
http://www.bindingdb.org/bind/chemsearch/marvin/MolStructure.jsp?monomerid=392076

>  <Link to Ligand-Target Pair in BindingDB>  (1) 
http://www.bindingdb.org/jsp/dbsearch/PrimarySearch_ki.jsp?energyterm=kJ/mole&tag=r21&monomerid=392076&enzyme=Type-1+angiotensin+II+receptor&column=ki&startPg=0&Increment=50&submit=Search

>  <Ligand HET ID in PDB>  (1) 


>  <PDB ID(s) for Ligand-Target Complex>  (1) 


>  <PubChem CID of Ligand>  (1) 
72548703

>  <PubChem SID of Ligand>  (1) 
404960416

>  <ChEBI ID of Ligand>  (1) 


>  <ChEMBL ID of Ligand>  (1) 


>  <DrugBank ID of Ligand>  (1) 


>  <IUPHAR_GRAC ID of Ligand>  (1) 


>  <KEGG ID of Ligand>  (1) 


>  <ZINC ID of Ligand>  (1) 


>  <Number of Protein Chains in Target (bigger than 1 implies a multichain complex)>  (1) 
1

>  <BindingDB Target Chain Sequence>  (1) 
MILNSSTEDGIKRIQDDCPKAGRHNYIFVMIPTLYSIIFVVGIFGNSLVVIVIYFYMKLKTVASVFLLNLALADLCFLLTLPLWAVYTAMEYRWPFGNYLCKIASASVSFNLYASVFLLTCLSIDRYLAIVHPMKSRLRRTMLVAKVTCIIIWLLAGLASLPAIIHRNVFFIENTNITVCAFHYESQNSTLPIGLGLTKNILGFLFPFLIILTSYTLIWKALKKAYEIQKNKPRNDDIFKIIMAIVLFFFFSWIPHQIFTFLDVLIQLGIIRDCRIADIVDTAMPITICIAYFNNCLNPLFYGFLGKKFKRYFLQLLKYIPPKAKSHSNLSTKMSTLSYRPSDNVSSSTKKPAPCFEVE

>  <PDB ID(s) of Target Chain>  (1) 
6DO1,6OS0,6OS1,6OS2

>  <UniProt (SwissProt) Recommended Name of Target Chain>  (1) 
Type-1 angiotensin II receptor

>  <UniProt (SwissProt) Entry Name of Target Chain>  (1) 
AGTR1_HUMAN

>  <UniProt (SwissProt) Primary ID of Target Chain>  (1) 
P30556

>  <UniProt (SwissProt) Secondary ID(s) of Target Chain>  (1) 
Q13725 Q8TBK4

>  <UniProt (SwissProt) Alternative ID(s) of Target Chain>  (1) 


>  <UniProt (TrEMBL) Submitted Name of Target Chain>  (1) 


>  <UniProt (TrEMBL) Entry Name of Target Chain>  (1) 


>  <UniProt (TrEMBL) Primary ID of Target Chain>  (1) 


>  <UniProt (TrEMBL) Secondary ID(s) of Target Chain>  (1) 


>  <UniProt (TrEMBL) Alternative ID(s) of Target Chain>  (1) 


$$$$
