
     RDKit          2D

 37 42  0  0  0  0  0  0  0  0999 V2000
    7.9002  -17.8347    0.0000 C   0  0  0  0  0  0  0  0  0  0  0  0
    7.9024  -17.0114    0.0000 C   0  0  0  0  0  0  0  0  0  0  0  0
    8.6065  -18.2610    0.0000 C   0  0  0  0  0  0  0  0  0  0  0  0
    8.6240  -16.6168    0.0000 C   0  0  0  0  0  0  0  0  0  0  0  0
    8.6304  -15.7863    0.0000 C   0  0  0  0  0  0  0  0  0  0  0  0
    9.3348  -17.0357    0.0000 C   0  0  0  0  0  0  0  0  0  0  0  0
    9.3563  -15.3846    0.0000 C   0  0  0  0  0  0  0  0  0  0  0  0
    7.1743  -18.2364    0.0000 C   0  0  0  0  0  0  0  0  0  0  0  0
    7.1958  -16.5853    0.0000 C   0  0  0  0  0  0  0  0  0  0  0  0
    6.4636  -17.8176    0.0000 C   0  0  0  0  0  0  0  0  0  0  0  0
    6.4807  -16.9934    0.0000 C   0  0  0  0  0  0  0  0  0  0  0  0
   10.0629  -15.8106    0.0000 C   0  0  0  0  0  0  0  0  0  0  0  0
   10.0514  -16.6269    0.0000 C   0  0  0  0  0  0  0  0  0  0  0  0
   10.8242  -16.8901    0.0000 C   0  0  0  0  0  0  0  0  0  0  0  0
   11.3133  -16.2365    0.0000 C   0  0  0  0  0  0  0  0  0  0  0  0
   10.8435  -15.5689    0.0000 C   0  0  0  0  0  0  0  0  0  0  0  0
   11.1077  -14.7874    0.0000 N   0  0  0  0  0  0  0  0  0  0  0  0
   11.1251  -13.4567    0.0000 N   0  0  0  0  0  0  0  0  0  0  0  0
   11.8930  -14.5402    0.0000 C   0  0  0  0  0  0  0  0  0  0  0  0
   10.6340  -14.1151    0.0000 C   0  0  0  0  0  0  0  0  0  0  0  0
   11.9114  -13.7233    0.0000 C   0  0  0  0  0  0  0  0  0  0  0  0
   13.3166  -14.5641    0.0000 C   0  0  0  0  0  0  0  0  0  0  0  0
   12.5988  -14.9674    0.0000 N   0  0  0  0  0  0  0  0  0  0  0  0
   12.6184  -13.3137    0.0000 C   0  0  0  0  0  0  0  0  0  0  0  0
   13.3285  -13.7337    0.0000 C   0  0  0  0  0  0  0  0  0  0  0  0
    9.8108  -14.1074    0.0000 C   0  0  0  0  0  0  0  0  0  0  0  0
   12.6261  -12.4904    0.0000 C   0  0  0  0  0  0  0  0  0  0  0  0
    9.4139  -13.3789    0.0000 C   0  0  0  0  0  0  0  0  0  0  0  0
    8.5927  -19.0852    0.0000 N   0  0  0  0  0  0  0  0  0  0  0  0
    9.3717  -19.3569    0.0000 N   0  0  0  0  0  0  0  0  0  0  0  0
    9.8709  -18.6999    0.0000 N   0  0  0  0  0  0  0  0  0  0  0  0
    9.4004  -18.0222    0.0000 N   0  0  0  0  0  0  0  0  0  0  0  0
   14.0256  -14.9859    0.0000 C   0  0  0  0  0  0  0  0  0  0  0  0
   14.7454  -14.5828    0.0000 C   0  0  0  0  0  0  0  0  0  0  0  0
   15.4544  -15.0046    0.0000 C   0  0  0  0  0  0  0  0  0  0  0  0
   14.7562  -13.7579    0.0000 C   0  0  0  0  0  0  0  0  0  0  0  0
    9.3861  -14.8147    0.0000 C   0  0  0  0  0  0  0  0  0  0  0  0
  7 12  2  0
  8  1  2  0
  9  2  2  0
 10 11  2  0
 11  9  1  0
  6  4  1  0
  8 10  1  0
 12 13  1  0
  1  2  1  0
 17 19  1  0
 18 21  1  0
 19 23  2  0
 20 17  1  0
 21 24  2  0
 23 22  1  0
 24 25  1  0
 25 22  2  0
 26 20  1  0
 27 24  1  0
 28 26  1  0
 19 21  1  0
 18 20  2  0
 16 17  1  1
 31 32  1  0
  2  4  1  0
 29 30  1  0
  3  1  1  0
  4  5  2  0
 13 14  1  0
  3 29  1  0
 30 31  2  0
 32  3  2  0
 14 15  1  0
 22 33  1  0
 16 15  1  0
 33 34  1  0
 16 12  1  0
 34 35  1  0
  5  7  1  0
 34 36  1  0
  6 13  2  0
 26 37  1  0
M  END
>  <From>  (1) 
www.bindingDB.org

>  <BindingDB Reactant_set_id>  (1) 
50647665

>  <Ligand InChI>  (1) 
InChI=1S/C30H33N7/c1-17(2)14-22-15-19(5)27-30(31-22)37(29(32-27)18(3)4)26-13-11-21-16-20(10-12-24(21)26)23-8-6-7-9-25(23)28-33-35-36-34-28/h6-10,12,15-18,26H,11,13-14H2,1-5H3,(H,33,34,35,36)/t26-/m0/s1

>  <Ligand InChI Key>  (1) 
HHBRJKDGDMTATE-SANMLTNESA-N

>  <BindingDB MonomerID>  (1) 
50347564

>  <BindingDB Ligand Name>  (1) 
CHEMBL1801741

>  <Target Name>  (1) 
Type-1 angiotensin II receptor

>  <Target Source Organism According to Curator or DataSource>  (1) 
Homo sapiens

>  <Ki (nM)>  (1) 


>  <IC50 (nM)>  (1) 
 3.5

>  <Kd (nM)>  (1) 


>  <EC50 (nM)>  (1) 


>  <kon (M-1-s-1)>  (1) 


>  <koff (s-1)>  (1) 


>  <pH>  (1) 


>  <Temp C>  (1) 


>  <Curation/DataSource>  (1) 
ChEMBL

>  <Article DOI>  (1) 
10.1021/jm200409s

>  <BindingDB Entry DOI>  (1) 
10.7270/Q2SB463J

>  <PMID>  (1) 
21557540

>  <PubChem AID>  (1) 


>  <Patent Number>  (1) 


>  <Authors>  (1) 
Casimiro-Garcia, A; Filzen, GF; Flynn, D; Bigge, CF; Chen, J; Davis, JA; Dudley, DA; Edmunds, JJ; Esmaeil, N; Geyer, A; Heemstra, RJ; Jalaie, M; Ohren, JF; Ostroski, R; Ellis, T; Schaum, RP; Stoner, C

>  <Institution>  (1) 
Pfizer Inc

>  <Link to Ligand in BindingDB>  (1) 
http://www.bindingdb.org/bind/chemsearch/marvin/MolStructure.jsp?monomerid=50347564

>  <Link to Ligand-Target Pair in BindingDB>  (1) 
http://www.bindingdb.org/jsp/dbsearch/PrimarySearch_ki.jsp?energyterm=kJ/mole&tag=r21&monomerid=50347564&enzyme=Type-1+angiotensin+II+receptor&column=ki&startPg=0&Increment=50&submit=Search

>  <Ligand HET ID in PDB>  (1) 


>  <PDB ID(s) for Ligand-Target Complex>  (1) 


>  <PubChem CID of Ligand>  (1) 
53309404

>  <PubChem SID of Ligand>  (1) 
136354250

>  <ChEBI ID of Ligand>  (1) 


>  <ChEMBL ID of Ligand>  (1) 
CHEMBL1801741

>  <DrugBank ID of Ligand>  (1) 


>  <IUPHAR_GRAC ID of Ligand>  (1) 


>  <KEGG ID of Ligand>  (1) 


>  <ZINC ID of Ligand>  (1) 
ZINC72109152

>  <Number of Protein Chains in Target (bigger than 1 implies a multichain complex)>  (1) 
1

>  <BindingDB Target Chain Sequence>  (1) 
MILNSSTEDGIKRIQDDCPKAGRHNYIFVMIPTLYSIIFVVGIFGNSLVVIVIYFYMKLKTVASVFLLNLALADLCFLLTLPLWAVYTAMEYRWPFGNYLCKIASASVSFNLYASVFLLTCLSIDRYLAIVHPMKSRLRRTMLVAKVTCIIIWLLAGLASLPAIIHRNVFFIENTNITVCAFHYESQNSTLPIGLGLTKNILGFLFPFLIILTSYTLIWKALKKAYEIQKNKPRNDDIFKIIMAIVLFFFFSWIPHQIFTFLDVLIQLGIIRDCRIADIVDTAMPITICIAYFNNCLNPLFYGFLGKKFKRYFLQLLKYIPPKAKSHSNLSTKMSTLSYRPSDNVSSSTKKPAPCFEVE

>  <PDB ID(s) of Target Chain>  (1) 
6DO1,6OS0,6OS1,6OS2

>  <UniProt (SwissProt) Recommended Name of Target Chain>  (1) 
Type-1 angiotensin II receptor

>  <UniProt (SwissProt) Entry Name of Target Chain>  (1) 
AGTR1_HUMAN

>  <UniProt (SwissProt) Primary ID of Target Chain>  (1) 
P30556

>  <UniProt (SwissProt) Secondary ID(s) of Target Chain>  (1) 
Q13725 Q8TBK4

>  <UniProt (SwissProt) Alternative ID(s) of Target Chain>  (1) 


>  <UniProt (TrEMBL) Submitted Name of Target Chain>  (1) 


>  <UniProt (TrEMBL) Entry Name of Target Chain>  (1) 


>  <UniProt (TrEMBL) Primary ID of Target Chain>  (1) 


>  <UniProt (TrEMBL) Secondary ID(s) of Target Chain>  (1) 


>  <UniProt (TrEMBL) Alternative ID(s) of Target Chain>  (1) 


$$$$
