
     RDKit          2D

 28 31  0  0  0  0  0  0  0  0999 V2000
    4.5324   -0.4388    0.0000 N   0  0  0  0  0  0  0  0  0  0  0  0
    4.5324   -2.0903    0.0000 C   0  0  0  0  0  0  0  0  0  0  0  0
    6.8710   -6.7427    0.0000 C   0  0  0  0  0  0  0  0  0  0  0  0
    6.0763   -6.5191    0.0000 C   0  0  0  0  0  0  0  0  0  0  0  0
    5.2443   -1.6805    0.0000 C   0  0  0  0  0  0  0  0  0  0  0  0
    7.4546   -6.1508    0.0000 C   0  0  0  0  0  0  0  0  0  0  0  0
    5.2443   -0.8444    0.0000 C   0  0  0  0  0  0  0  0  0  0  0  0
    3.8163   -1.6805    0.0000 C   0  0  0  0  0  0  0  0  0  0  0  0
    3.8163   -0.8444    0.0000 C   0  0  0  0  0  0  0  0  0  0  0  0
    5.8734   -5.7244    0.0000 C   0  0  0  0  0  0  0  0  0  0  0  0
    4.5324   -2.9181    0.0000 O   0  0  0  0  0  0  0  0  0  0  0  0
    7.2435   -5.3437    0.0000 O   0  0  0  0  0  0  0  0  0  0  0  0
    5.0705   -5.5009    0.0000 C   0  0  0  0  0  0  0  0  0  0  0  0
    6.4571   -5.1408    0.0000 C   0  0  0  0  0  0  0  0  0  0  0  0
    8.2618   -6.3619    0.0000 O   0  0  0  0  0  0  0  0  0  0  0  0
    5.2443   -3.3320    0.0000 C   0  0  0  0  0  0  0  0  0  0  0  0
    5.4554   -4.1392    0.0000 C   0  0  0  0  0  0  0  0  0  0  0  0
    6.2460   -4.3503    0.0000 C   0  0  0  0  0  0  0  0  0  0  0  0
    4.8676   -4.7104    0.0000 C   0  0  0  0  0  0  0  0  0  0  0  0
    7.0945   -7.5291    0.0000 C   0  0  0  0  0  0  0  0  0  0  0  0
    5.4927   -7.1028    0.0000 C   0  0  0  0  0  0  0  0  0  0  0  0
    5.9521   -2.0903    0.0000 C   0  0  0  0  0  0  0  0  0  0  0  0
    5.9604   -0.4388    0.0000 C   0  0  0  0  0  0  0  0  0  0  0  0
    3.0961   -0.4388    0.0000 C   0  0  0  0  0  0  0  0  0  0  0  0
    5.6996   -7.8892    0.0000 C   0  0  0  0  0  0  0  0  0  0  0  0
    6.5067   -8.1127    0.0000 C   0  0  0  0  0  0  0  0  0  0  0  0
    6.6599   -1.6805    0.0000 C   0  0  0  0  0  0  0  0  0  0  0  0
    6.6723   -0.8610    0.0000 C   0  0  0  0  0  0  0  0  0  0  0  0
  2  8  1  0
  3  4  2  0
  4 10  1  0
  5  7  1  0
  6  3  1  0
  7  1  2  0
  8  9  2  0
  9  1  1  0
 10 13  2  0
 11  2  1  0
 12  6  2  0
 13 19  1  0
 14 18  2  0
 15  6  1  0
 16 11  1  0
 17 16  1  0
 18 17  1  0
 19 17  2  0
 20  3  1  0
 21  4  1  0
 22  5  1  0
 23  7  1  0
 24  9  1  0
 25 21  2  0
 26 25  1  0
 27 28  1  0
 28 23  2  0
  5  2  2  0
 27 22  2  0
 10 14  1  0
 26 20  2  0
M  END
>  <From>  (1) 
www.bindingDB.org

>  <BindingDB Reactant_set_id>  (1) 
50005370

>  <Ligand InChI>  (1) 
InChI=1S/C24H19NO3/c1-16-14-23(21-8-4-5-9-22(21)25-16)28-15-17-10-12-18(13-11-17)19-6-2-3-7-20(19)24(26)27/h2-14H,15H2,1H3,(H,26,27)

>  <Ligand InChI Key>  (1) 
CZHTVPAZYQJIGP-UHFFFAOYSA-N

>  <BindingDB MonomerID>  (1) 
50003378

>  <BindingDB Ligand Name>  (1) 
4'-(2-Methyl-quinolin-4-yloxymethyl)-biphenyl-2-carboxylic acid::CHEMBL132269

>  <Target Name>  (1) 
Type-1 angiotensin II receptor

>  <Target Source Organism According to Curator or DataSource>  (1) 
Cavia porcellus

>  <Ki (nM)>  (1) 


>  <IC50 (nM)>  (1) 
 180

>  <Kd (nM)>  (1) 


>  <EC50 (nM)>  (1) 


>  <kon (M-1-s-1)>  (1) 


>  <koff (s-1)>  (1) 


>  <pH>  (1) 


>  <Temp C>  (1) 


>  <Curation/DataSource>  (1) 
ChEMBL

>  <Article DOI>  (1) 
10.1021/jm00100a007

>  <BindingDB Entry DOI>  (1) 
10.7270/Q2G44P8Q

>  <PMID>  (1) 
1433210

>  <PubChem AID>  (1) 


>  <Patent Number>  (1) 


>  <Authors>  (1) 
Bradbury, RH; Allott, CP; Dennis, M; Fisher, E; Major, JS; Masek, BB; Oldham, AA; Pearce, RJ; Rankine, N; Revill, JM

>  <Institution>  (1) 
ICI Pharmaceuticals Group

>  <Link to Ligand in BindingDB>  (1) 
http://www.bindingdb.org/bind/chemsearch/marvin/MolStructure.jsp?monomerid=50003378

>  <Link to Ligand-Target Pair in BindingDB>  (1) 
http://www.bindingdb.org/jsp/dbsearch/PrimarySearch_ki.jsp?energyterm=kJ/mole&tag=r21&monomerid=50003378&enzyme=Type-1+angiotensin+II+receptor&column=ki&startPg=0&Increment=50&submit=Search

>  <Ligand HET ID in PDB>  (1) 


>  <PDB ID(s) for Ligand-Target Complex>  (1) 


>  <PubChem CID of Ligand>  (1) 
10453972

>  <PubChem SID of Ligand>  (1) 
103917351

>  <ChEBI ID of Ligand>  (1) 


>  <ChEMBL ID of Ligand>  (1) 
CHEMBL132269

>  <DrugBank ID of Ligand>  (1) 


>  <IUPHAR_GRAC ID of Ligand>  (1) 


>  <KEGG ID of Ligand>  (1) 


>  <ZINC ID of Ligand>  (1) 
ZINC13728622

>  <Number of Protein Chains in Target (bigger than 1 implies a multichain complex)>  (1) 
1

>  <BindingDB Target Chain Sequence>  (1) 
MILNSSTEDGIKRIQDDCPKAGRHSYIFVMIPTLYSIIFVVGIFGNSLVVIVIYFYMKLKTVASVFLLNLALADICFLLTLPLWAVYTAMEYRWPFGNYLCKIASASVSFNLYASVFLLTCLSIDRYLAIVHPMKSRLRRTMLVAKVTCVIIWLMAGLASLPAVIHRNVFFIENTNITVCAFHYESQNSTLPIGLGLTKNILGFMFPFLIILTSYTLIWKALKKAYEIQKNKPRNDDIFKIIMAIVLFFFFSWVPHQIFTFLDVLIQLGIIHDCKISDIVDTAMPITICIAYFNNCLNPLFYGFLGKKFKKYFLQLLKYIPPKAKSHSTLSTKMSTLSYRPSDNVSSSAKKPVQCFEVE

>  <PDB ID(s) of Target Chain>  (1) 
4ZUD

>  <UniProt (SwissProt) Recommended Name of Target Chain>  (1) 
Type-1 angiotensin II receptor

>  <UniProt (SwissProt) Entry Name of Target Chain>  (1) 
AGTR1_CAVPO

>  <UniProt (SwissProt) Primary ID of Target Chain>  (1) 
Q9WV26

>  <UniProt (SwissProt) Secondary ID(s) of Target Chain>  (1) 


>  <UniProt (SwissProt) Alternative ID(s) of Target Chain>  (1) 


>  <UniProt (TrEMBL) Submitted Name of Target Chain>  (1) 


>  <UniProt (TrEMBL) Entry Name of Target Chain>  (1) 


>  <UniProt (TrEMBL) Primary ID of Target Chain>  (1) 


>  <UniProt (TrEMBL) Secondary ID(s) of Target Chain>  (1) 


>  <UniProt (TrEMBL) Alternative ID(s) of Target Chain>  (1) 


$$$$
