
     RDKit          2D

 47 50  0  0  0  0  0  0  0  0999 V2000
   -2.1594   -4.8860    0.0000 N   0  0  0  0  0  0  0  0  0  0  0  0
   -1.8501   -6.1919    0.0000 N   0  0  0  0  0  0  0  0  0  0  0  0
   -1.5408   -5.4187    0.0000 C   0  0  0  0  0  0  0  0  0  0  0  0
    1.8444   -5.3843    0.0000 S   0  0  0  0  0  0  0  0  0  0  0  0
   -2.8639   -5.3156    0.0000 N   0  0  0  0  0  0  0  0  0  0  0  0
   -2.6749   -6.1232    0.0000 C   0  0  0  0  0  0  0  0  0  0  0  0
    2.2397   -4.6626    0.0000 N   0  0  0  0  0  0  0  0  0  0  0  0
   -2.0906   -4.0611    0.0000 C   0  0  0  0  0  0  0  0  0  0  0  0
   -1.4205   -6.8965    0.0000 C   0  0  0  0  0  0  0  0  0  0  0  0
    2.2740   -6.0888    0.0000 C   0  0  0  0  0  0  0  0  0  0  0  0
    3.0645   -4.6454    0.0000 C   0  0  0  0  0  0  0  0  0  0  0  0
   -0.5957   -6.8621    0.0000 C   0  0  0  0  0  0  0  0  0  0  0  0
    1.8788   -6.8105    0.0000 C   0  0  0  0  0  0  0  0  0  0  0  0
    1.0540   -6.8277    0.0000 C   0  0  0  0  0  0  0  0  0  0  0  0
   -1.3517   -3.7175    0.0000 C   0  0  0  0  0  0  0  0  0  0  0  0
   -0.1661   -7.5666    0.0000 C   0  0  0  0  0  0  0  0  0  0  0  0
    1.1571   -4.7657    0.0000 O   0  0  0  0  0  0  0  0  0  0  0  0
    1.3977   -6.1060    0.0000 O   0  0  0  0  0  0  0  0  0  0  0  0
    0.6588   -7.5494    0.0000 C   0  0  0  0  0  0  0  0  0  0  0  0
   -0.7331   -5.2296    0.0000 O   0  0  0  0  0  0  0  0  0  0  0  0
   -2.7780   -3.5972    0.0000 C   0  0  0  0  0  0  0  0  0  0  0  0
   -0.4754   -1.7242    0.0000 C   0  0  0  0  0  0  0  0  0  0  0  0
   -0.5441   -2.5490    0.0000 N   0  0  0  0  0  0  0  0  0  0  0  0
    3.4597   -3.9237    0.0000 O   0  0  0  0  0  0  0  0  0  0  0  0
   -1.2830   -2.8926    0.0000 C   0  0  0  0  0  0  0  0  0  0  0  0
    3.4941   -5.3499    0.0000 O   0  0  0  0  0  0  0  0  0  0  0  0
   -0.2004   -6.1404    0.0000 C   0  0  0  0  0  0  0  0  0  0  0  0
    0.6244   -6.1232    0.0000 C   0  0  0  0  0  0  0  0  0  0  0  0
   -1.1455   -1.2430    0.0000 O   0  0  0  0  0  0  0  0  0  0  0  0
    4.2845   -3.9065    0.0000 C   0  0  0  0  0  0  0  0  0  0  0  0
   -2.7093   -2.7895    0.0000 C   0  0  0  0  0  0  0  0  0  0  0  0
   -0.5785   -8.2826    0.0000 Cl  0  0  0  0  0  0  0  0  0  0  0  0
   -1.9532   -2.4287    0.0000 C   0  0  0  0  0  0  0  0  0  0  0  0
   -3.5169   -3.9580    0.0000 Br  0  0  0  0  0  0  0  0  0  0  0  0
   -3.2076   -6.7418    0.0000 C   0  0  0  0  0  0  0  0  0  0  0  0
    3.0989   -6.0716    0.0000 C   0  0  0  0  0  0  0  0  0  0  0  0
    2.3084   -7.5151    0.0000 C   0  0  0  0  0  0  0  0  0  0  0  0
    0.2807   -1.3633    0.0000 C   0  0  0  0  0  0  0  0  0  0  0  0
    4.6969   -3.1848    0.0000 C   0  0  0  0  0  0  0  0  0  0  0  0
    5.1094   -3.9065    0.0000 C   0  0  0  0  0  0  0  0  0  0  0  0
    4.7141   -4.6282    0.0000 C   0  0  0  0  0  0  0  0  0  0  0  0
   -2.9327   -7.5323    0.0000 C   0  0  0  0  0  0  0  0  0  0  0  0
   -3.4653   -8.1509    0.0000 C   0  0  0  0  0  0  0  0  0  0  0  0
    0.3323   -0.5557    0.0000 C   0  0  0  0  0  0  0  0  0  0  0  0
    3.5284   -6.7934    0.0000 C   0  0  0  0  0  0  0  0  0  0  0  0
    3.1160   -7.5151    0.0000 C   0  0  0  0  0  0  0  0  0  0  0  0
   -3.1904   -8.9242    0.0000 C   0  0  0  0  0  0  0  0  0  0  0  0
  2  3  1  0
  3  1  1  0
  4 10  1  0
  5  1  1  0
  6  5  2  0
  7  4  1  0
  8  1  1  0
  9  2  1  0
 10 13  2  0
 11  7  1  0
 12  9  1  0
 13 14  1  0
 14 28  1  0
 15  8  2  0
 16 12  2  0
 17  4  2  0
 18  4  2  0
 19 16  1  0
 20  3  2  0
 21  8  1  0
 22 23  1  0
 23 25  1  0
 24 11  1  0
 25 15  1  0
 26 11  2  0
 27 12  1  0
 28 27  2  0
 29 22  2  0
 30 24  1  0
 31 21  2  0
 32 16  1  0
 33 31  1  0
 34 21  1  0
 35  6  1  0
 36 10  1  0
 37 13  1  0
 38 22  1  0
 39 30  1  0
 40 30  1  0
 41 30  1  0
 42 35  1  0
 43 42  1  0
 44 38  1  0
 45 46  1  0
 46 37  2  0
 47 43  1  0
  6  2  1  0
 25 33  2  0
 19 14  2  0
 36 45  2  0
M  END
>  <From>  (1) 
www.bindingDB.org

>  <BindingDB Reactant_set_id>  (1) 
51183706

>  <Ligand InChI>  (1) 
InChI=1S/C33H37BrClN5O6S/c1-6-8-13-29-37-40(27-19-23(16-17-25(27)34)36-30(41)7-2)32(43)39(29)20-22-15-14-21(18-26(22)35)24-11-9-10-12-28(24)47(44,45)38-31(42)46-33(3,4)5/h9-12,14-19H,6-8,13,20H2,1-5H3,(H,36,41)(H,38,42)

>  <Ligand InChI Key>  (1) 
ZKJPLGJFGCDALG-UHFFFAOYSA-N

>  <BindingDB MonomerID>  (1) 
50030733

>  <BindingDB Ligand Name>  (1) 
CHEMBL125231::N-{4-Bromo-3-[3-butyl-4-(3-chloro-2'-(N-t-butyloxycarbonyl)-Sulfanamido-biphenyl-4-ylmethyl)-5-oxo-4,5-dihydro-[1,2,4]triazol-1-yl]-phenyl}-propionamide

>  <Target Name>  (1) 
Type-1 angiotensin II receptor

>  <Target Source Organism According to Curator or DataSource>  (1) 
Oryctolagus cuniculus

>  <Ki (nM)>  (1) 


>  <IC50 (nM)>  (1) 
 0.250035

>  <Kd (nM)>  (1) 


>  <EC50 (nM)>  (1) 


>  <kon (M-1-s-1)>  (1) 


>  <koff (s-1)>  (1) 


>  <pH>  (1) 


>  <Temp C>  (1) 


>  <Curation/DataSource>  (1) 
ChEMBL

>  <Article DOI>  (1) 
10.1007/s00044-011-9815-x

>  <BindingDB Entry DOI>  (1) 
10.7270/Q2VT1W0S

>  <PMID>  (1) 


>  <PubChem AID>  (1) 


>  <Patent Number>  (1) 


>  <Authors>  (1) 
n/a

>  <Institution>  (1) 
n/a

>  <Link to Ligand in BindingDB>  (1) 
http://www.bindingdb.org/bind/chemsearch/marvin/MolStructure.jsp?monomerid=50030733

>  <Link to Ligand-Target Pair in BindingDB>  (1) 
http://www.bindingdb.org/jsp/dbsearch/PrimarySearch_ki.jsp?energyterm=kJ/mole&tag=r21&monomerid=50030733&enzyme=Type-1+angiotensin+II+receptor&column=ki&startPg=0&Increment=50&submit=Search

>  <Ligand HET ID in PDB>  (1) 


>  <PDB ID(s) for Ligand-Target Complex>  (1) 


>  <PubChem CID of Ligand>  (1) 
10259489

>  <PubChem SID of Ligand>  (1) 
103939581

>  <ChEBI ID of Ligand>  (1) 


>  <ChEMBL ID of Ligand>  (1) 
CHEMBL125231

>  <DrugBank ID of Ligand>  (1) 


>  <IUPHAR_GRAC ID of Ligand>  (1) 


>  <KEGG ID of Ligand>  (1) 


>  <ZINC ID of Ligand>  (1) 
ZINC95547590

>  <Number of Protein Chains in Target (bigger than 1 implies a multichain complex)>  (1) 
1

>  <BindingDB Target Chain Sequence>  (1) 
MMLNSSTEDGIKRIQDDCPKAGRHNYIFVMIPTLYSIIFVVGIFGNSLAVIVIYFYMKLKTVASVFLLNLALADLCFLLTLPLWAVYTAMEYRWPFGNYLCKIASASVSFNLYASVFLLTCLSIDRYLAIVHPMKSRLRRTMLVAKVTCIIIWLLAGLASLPAIIHRNVFFIENTNITVCAFHYESQNSTLPIGLGLTKNILGFLFPFLIILTSYTLIWKALKKAYEIQKNKPRNDDIFKIIMAIVLFFFFSWVPHQIFTFLDVLIQLGVIHDCRIADIVDTAMPITICIAYFNNCLNPLFYGFLGKKFKKYFLQLLKYIPPKAKSHSNLSTKMSTLSYRPSDNVSSSSKKPVPCFEVE

>  <PDB ID(s) of Target Chain>  (1) 
6DO1,6OS0,6OS1,6OS2

>  <UniProt (SwissProt) Recommended Name of Target Chain>  (1) 
Type-1 angiotensin II receptor

>  <UniProt (SwissProt) Entry Name of Target Chain>  (1) 
AGTR1_RABIT

>  <UniProt (SwissProt) Primary ID of Target Chain>  (1) 
P34976

>  <UniProt (SwissProt) Secondary ID(s) of Target Chain>  (1) 


>  <UniProt (SwissProt) Alternative ID(s) of Target Chain>  (1) 


>  <UniProt (TrEMBL) Submitted Name of Target Chain>  (1) 


>  <UniProt (TrEMBL) Entry Name of Target Chain>  (1) 


>  <UniProt (TrEMBL) Primary ID of Target Chain>  (1) 


>  <UniProt (TrEMBL) Secondary ID(s) of Target Chain>  (1) 


>  <UniProt (TrEMBL) Alternative ID(s) of Target Chain>  (1) 


$$$$
