
     RDKit          2D

 43 49  0  0  1  0  0  0  0  0999 V2000
    6.9417   -1.5917    0.0000 N   0  0  0  0  0  0  0  0  0  0  0  0
    6.2292   -2.0042    0.0000 C   0  0  0  0  0  0  0  0  0  0  0  0
    5.5167   -1.5917    0.0000 C   0  0  0  0  0  0  0  0  0  0  0  0
    6.9417   -0.7625    0.0000 C   0  0  0  0  0  0  0  0  0  0  0  0
    6.2250   -0.3542    0.0000 N   0  0  0  0  0  0  0  0  0  0  0  0
    9.1042   -5.2792    0.0000 C   0  0  0  0  0  0  0  0  0  0  0  0
   10.3292   -4.5625    0.0000 N   0  0  0  0  0  0  0  0  0  0  0  0
    2.4625   -2.9917    0.0000 N   0  0  0  0  0  0  0  0  0  0  0  0
    9.5125   -4.5625    0.0000 N   0  0  0  0  0  0  0  0  0  0  0  0
   10.7417   -5.2750    0.0000 N   0  0  0  0  0  0  0  0  0  0  0  0
    5.5167   -0.7667    0.0000 C   0  0  0  0  0  0  0  0  0  0  0  0
    3.2750   -2.8292    0.0000 O   0  0  0  0  0  0  0  0  0  0  0  0
    2.0542   -2.2792    0.0000 C   0  0  0  0  0  0  0  0  0  0  0  0
    9.8167   -5.6917    0.0000 N   0  0  0  0  0  0  0  0  0  0  0  0
    4.8000   -2.0125    0.0000 C   0  0  0  0  0  0  0  0  0  0  0  0
    3.3667   -2.0042    0.0000 C   0  0  0  0  0  0  0  0  0  0  0  0
    8.3917   -5.7000    0.0000 C   0  0  0  0  0  0  0  0  0  0  0  0
    2.6167   -1.6667    0.0000 C   0  0  0  0  0  0  0  0  0  0  0  0
    7.6792   -5.2917    0.0000 C   0  0  0  0  0  0  0  0  0  0  0  0
    4.0875   -1.6000    0.0000 C   0  0  0  0  0  0  0  0  0  0  0  0
    7.6625   -2.0000    0.0000 C   0  0  0  0  0  0  0  0  0  0  0  0
    6.2292   -2.8292    0.0000 O   0  0  0  0  0  0  0  0  0  0  0  0
    7.6750   -4.4667    0.0000 C   0  0  0  0  0  0  0  0  0  0  0  0
    4.8000   -0.3542    0.0000 C   0  0  0  0  0  0  0  0  0  0  0  0
    4.0875   -0.7750    0.0000 C   0  0  0  0  0  0  0  0  0  0  0  0
    6.9542   -4.0625    0.0000 C   0  0  0  0  0  0  0  0  0  0  0  0
    8.3875   -4.0542    0.0000 C   0  0  0  0  0  0  0  0  0  0  0  0
    7.6667   -2.8250    0.0000 C   0  0  0  0  0  0  0  0  0  0  0  0
    7.6542   -0.3417    0.0000 C   0  0  0  0  0  0  0  0  0  0  0  0
    2.0417   -3.7042    0.0000 C   0  0  0  0  0  0  0  0  0  0  0  0
    6.9542   -3.2375    0.0000 C   0  0  0  0  0  0  0  0  0  0  0  0
    8.3792   -3.2292    0.0000 C   0  0  0  0  0  0  0  0  0  0  0  0
    1.8417   -1.4792    0.0000 C   0  0  0  0  0  0  0  0  0  0  0  0
    1.2375   -2.2667    0.0000 C   0  0  0  0  0  0  0  0  0  0  0  0
    8.4000   -6.5167    0.0000 C   0  0  0  0  0  0  0  0  0  0  0  0
    6.9667   -5.7042    0.0000 C   0  0  0  0  0  0  0  0  0  0  0  0
    8.3667   -0.7542    0.0000 C   0  0  0  0  0  0  0  0  0  0  0  0
    9.0792   -0.3375    0.0000 C   0  0  0  0  0  0  0  0  0  0  0  0
    1.2167   -3.6917    0.0000 C   0  0  0  0  0  0  0  0  0  0  0  0
    0.8167   -2.9792    0.0000 C   0  0  0  0  0  0  0  0  0  0  0  0
    6.9667   -6.5292    0.0000 C   0  0  0  0  0  0  0  0  0  0  0  0
    7.6875   -6.9417    0.0000 C   0  0  0  0  0  0  0  0  0  0  0  0
    9.8000   -0.7417    0.0000 C   0  0  0  0  0  0  0  0  0  0  0  0
  2  1  1  0
  3  2  1  0
  4  1  1  0
  5  4  2  0
  6 17  1  0
  7  9  1  0
  8 12  1  0
  9  6  1  0
 10 14  1  0
 11  5  1  0
 16 12  1  0
 13 18  1  0
 14  6  2  0
 15  3  2  0
 16 20  1  1
 17 19  1  0
 16 18  1  0
 19 23  1  0
 20 15  1  0
 21  1  1  0
 22  2  2  0
 23 27  2  0
 24 11  2  0
 25 24  1  0
 26 31  2  0
 27 32  1  0
 28 21  1  0
 29  4  1  0
 30  8  1  0
 31 28  1  0
 32 28  2  0
 13 33  1  1
 13 34  1  0
 35 17  2  0
 36 19  2  0
 37 29  1  0
 38 37  1  0
 39 30  1  0
 40 34  1  0
 41 36  1  0
 42 41  2  0
 43 38  1  0
 11  3  1  0
 26 23  1  0
 25 20  2  0
 13  8  1  0
 42 35  1  0
 40 39  1  0
  7 10  2  0
M  END
>  <From>  (1) 
www.bindingDB.org

>  <BindingDB Reactant_set_id>  (1) 
50468351

>  <Ligand InChI>  (1) 
InChI=1S/C34H37N7O2/c1-3-4-11-31-35-29-17-16-25(30-21-34(2)18-7-8-19-41(34)43-30)20-28(29)33(42)40(31)22-23-12-14-24(15-13-23)26-9-5-6-10-27(26)32-36-38-39-37-32/h5-6,9-10,12-17,20,30H,3-4,7-8,11,18-19,21-22H2,1-2H3,(H,36,37,38,39)/t30-,34+/m0/s1

>  <Ligand InChI Key>  (1) 
XGHXMXBQAKAEJT-BFGHFXMOSA-N

>  <BindingDB MonomerID>  (1) 
50282796

>  <BindingDB Ligand Name>  (1) 
2-Butyl-6-((2S,3aR)-3a-methyl-hexahydro-isoxazolo[2,3-a]pyridin-2-yl)-3-[2'-(1H-tetrazol-5-yl)-biphenyl-4-ylmethyl]-3H-quinazolin-4-one::CHEMBL46361

>  <Target Name>  (1) 
Type-1 angiotensin II receptor

>  <Target Source Organism According to Curator or DataSource>  (1) 
Bos taurus

>  <Ki (nM)>  (1) 


>  <IC50 (nM)>  (1) 
 65

>  <Kd (nM)>  (1) 


>  <EC50 (nM)>  (1) 


>  <kon (M-1-s-1)>  (1) 


>  <koff (s-1)>  (1) 


>  <pH>  (1) 


>  <Temp C>  (1) 


>  <Curation/DataSource>  (1) 
ChEMBL

>  <Article DOI>  (1) 
10.1016/S0960-894X(00)80365-0

>  <BindingDB Entry DOI>  (1) 
10.7270/Q2JS9QB3

>  <PMID>  (1) 


>  <PubChem AID>  (1) 


>  <Patent Number>  (1) 


>  <Authors>  (1) 
Levin, JI; Chan, PS; Coupet, J; Bailey, TK; Vice, G; Thibault, L; F., L; Venkatesan, AM; Cobuzzi, A

>  <Institution>  (1) 
TBA

>  <Link to Ligand in BindingDB>  (1) 
http://www.bindingdb.org/bind/chemsearch/marvin/MolStructure.jsp?monomerid=50282796

>  <Link to Ligand-Target Pair in BindingDB>  (1) 
http://www.bindingdb.org/jsp/dbsearch/PrimarySearch_ki.jsp?energyterm=kJ/mole&tag=r21&monomerid=50282796&enzyme=Type-1+angiotensin+II+receptor&column=ki&startPg=0&Increment=50&submit=Search

>  <Ligand HET ID in PDB>  (1) 


>  <PDB ID(s) for Ligand-Target Complex>  (1) 


>  <PubChem CID of Ligand>  (1) 
44292342

>  <PubChem SID of Ligand>  (1) 
104124470

>  <ChEBI ID of Ligand>  (1) 


>  <ChEMBL ID of Ligand>  (1) 
CHEMBL46361

>  <DrugBank ID of Ligand>  (1) 


>  <IUPHAR_GRAC ID of Ligand>  (1) 


>  <KEGG ID of Ligand>  (1) 


>  <ZINC ID of Ligand>  (1) 
ZINC29414412

>  <Number of Protein Chains in Target (bigger than 1 implies a multichain complex)>  (1) 
1

>  <BindingDB Target Chain Sequence>  (1) 
MILNSSTEDGIKRIQDDCPKAGRHNYIFIMIPTLYSIIFVVGIFGNSLVVIVIYFYMKLKTVASVFLLNLALADLCFLLTLPLWAVYTAMEYRWPFGNYLCKIASASVSFNLYASVFLLTCLSIDRYLAIVHPMKSRLRRTMLVAKVTCIIIWLLAGLASLPTIIHRNVFFIENTNITVCAFHYESQNSTLPVGLGLTKNILGFLFPFLIILTSYTLIWKTLKKAYEIQKNKPRKDDIFKIILAIVLFFFFSWVPHQIFTFMDVLIQLGLIRDCKIEDIVDTAMPITICLAYFNNCLNPLFYGFLGKKFKKYFLQLLKYIPPKAKSHSNLSTKMSTLSYRPSENGNSSTKKPAPCIEVE

>  <PDB ID(s) of Target Chain>  (1) 


>  <UniProt (SwissProt) Recommended Name of Target Chain>  (1) 
Type-1 angiotensin II receptor

>  <UniProt (SwissProt) Entry Name of Target Chain>  (1) 
AGTR1_BOVIN

>  <UniProt (SwissProt) Primary ID of Target Chain>  (1) 
P25104

>  <UniProt (SwissProt) Secondary ID(s) of Target Chain>  (1) 


>  <UniProt (SwissProt) Alternative ID(s) of Target Chain>  (1) 


>  <UniProt (TrEMBL) Submitted Name of Target Chain>  (1) 


>  <UniProt (TrEMBL) Entry Name of Target Chain>  (1) 


>  <UniProt (TrEMBL) Primary ID of Target Chain>  (1) 


>  <UniProt (TrEMBL) Secondary ID(s) of Target Chain>  (1) 


>  <UniProt (TrEMBL) Alternative ID(s) of Target Chain>  (1) 


$$$$
