
     RDKit          2D

 44 50  0  0  0  0  0  0  0  0999 V2000
    3.8167   -1.7250    0.0000 N   0  0  0  0  0  0  0  0  0  0  0  0
    3.8167   -2.5542    0.0000 C   0  0  0  0  0  0  0  0  0  0  0  0
    3.1000   -1.3167    0.0000 C   0  0  0  0  0  0  0  0  0  0  0  0
    3.1042   -2.9667    0.0000 N   0  0  0  0  0  0  0  0  0  0  0  0
    2.3917   -1.7292    0.0000 C   0  0  0  0  0  0  0  0  0  0  0  0
    7.8125    0.1250    0.0000 C   0  0  0  0  0  0  0  0  0  0  0  0
    6.9875    0.2083    0.0000 N   0  0  0  0  0  0  0  0  0  0  0  0
    6.8042    1.0083    0.0000 N   0  0  0  0  0  0  0  0  0  0  0  0
    8.1375    0.8833    0.0000 N   0  0  0  0  0  0  0  0  0  0  0  0
    2.3917   -2.5542    0.0000 C   0  0  0  0  0  0  0  0  0  0  0  0
    7.5167    1.4333    0.0000 N   0  0  0  0  0  0  0  0  0  0  0  0
    8.2292   -0.5875    0.0000 C   0  0  0  0  0  0  0  0  0  0  0  0
    6.6792   -5.0167    0.0000 C   0  0  0  0  0  0  0  0  0  0  0  0
    7.8167   -1.3042    0.0000 C   0  0  0  0  0  0  0  0  0  0  0  0
    6.6792   -4.1917    0.0000 C   0  0  0  0  0  0  0  0  0  0  0  0
    5.9667   -5.4292    0.0000 C   0  0  0  0  0  0  0  0  0  0  0  0
    4.5292   -1.3042    0.0000 C   0  0  0  0  0  0  0  0  0  0  0  0
    4.5375   -2.9625    0.0000 C   0  0  0  0  0  0  0  0  0  0  0  0
    3.0917   -0.4917    0.0000 O   0  0  0  0  0  0  0  0  0  0  0  0
    5.9667   -3.7792    0.0000 C   0  0  0  0  0  0  0  0  0  0  0  0
    6.9917   -1.3042    0.0000 C   0  0  0  0  0  0  0  0  0  0  0  0
    5.9667   -6.2542    0.0000 O   0  0  0  0  0  0  0  0  0  0  0  0
    4.5375   -3.7875    0.0000 C   0  0  0  0  0  0  0  0  0  0  0  0
    5.2417   -2.5417    0.0000 C   0  0  0  0  0  0  0  0  0  0  0  0
    5.9542   -2.9500    0.0000 C   0  0  0  0  0  0  0  0  0  0  0  0
    5.2500   -4.1917    0.0000 C   0  0  0  0  0  0  0  0  0  0  0  0
    6.5792   -0.5917    0.0000 C   0  0  0  0  0  0  0  0  0  0  0  0
    6.5875   -2.0167    0.0000 C   0  0  0  0  0  0  0  0  0  0  0  0
    5.3542   -1.3042    0.0000 C   0  0  0  0  0  0  0  0  0  0  0  0
    5.2500   -5.0250    0.0000 O   0  0  0  0  0  0  0  0  0  0  0  0
    1.6750   -1.3167    0.0000 C   0  0  0  0  0  0  0  0  0  0  0  0
    5.7625   -2.0167    0.0000 C   0  0  0  0  0  0  0  0  0  0  0  0
    5.7542   -0.5917    0.0000 C   0  0  0  0  0  0  0  0  0  0  0  0
    1.6750   -2.9750    0.0000 C   0  0  0  0  0  0  0  0  0  0  0  0
    9.0500   -0.5792    0.0000 C   0  0  0  0  0  0  0  0  0  0  0  0
    7.4000   -5.4250    0.0000 C   0  0  0  0  0  0  0  0  0  0  0  0
    7.3875   -3.7750    0.0000 C   0  0  0  0  0  0  0  0  0  0  0  0
    8.2375   -2.0167    0.0000 C   0  0  0  0  0  0  0  0  0  0  0  0
    0.9625   -1.7375    0.0000 C   0  0  0  0  0  0  0  0  0  0  0  0
    9.0542   -2.0167    0.0000 C   0  0  0  0  0  0  0  0  0  0  0  0
    9.4667   -1.3000    0.0000 C   0  0  0  0  0  0  0  0  0  0  0  0
    8.1125   -5.0042    0.0000 C   0  0  0  0  0  0  0  0  0  0  0  0
    8.1042   -4.1792    0.0000 C   0  0  0  0  0  0  0  0  0  0  0  0
    0.9625   -2.5625    0.0000 C   0  0  0  0  0  0  0  0  0  0  0  0
  2  1  1  0
  3  1  1  0
  4  2  2  0
  5  3  1  0
  6 12  1  0
  7  6  2  0
  8  7  1  0
  9  6  1  0
 10  5  2  0
 11  9  1  0
 12 14  1  0
 13 15  2  0
 14 21  1  0
 15 20  1  0
 16 13  1  0
 17  1  1  0
 18  2  1  0
 19  3  2  0
 20 25  1  0
 21 27  2  0
 22 16  2  0
 23 18  2  0
 24 18  1  0
 25 24  2  0
 26 23  1  0
 27 33  1  0
 28 32  2  0
 29 17  1  0
 30 16  1  0
 31  5  1  0
 32 29  1  0
 33 29  2  0
 34 10  1  0
 35 12  2  0
 36 13  1  0
 37 15  1  0
 38 14  2  0
 39 31  2  0
 40 38  1  0
 41 40  2  0
 42 43  1  0
 43 37  2  0
 44 39  1  0
  4 10  1  0
 21 28  1  0
 20 26  2  0
 34 44  2  0
 35 41  1  0
 42 36  2  0
  8 11  2  0
M  END
>  <From>  (1) 
www.bindingDB.org

>  <BindingDB Reactant_set_id>  (1) 
50002319

>  <Ligand InChI>  (1) 
InChI=1S/C35H24N6O3/c42-34-30-11-5-6-12-31(30)36-33(25-19-17-24(18-20-25)27-8-2-4-10-29(27)35(43)44)41(34)21-22-13-15-23(16-14-22)26-7-1-3-9-28(26)32-37-39-40-38-32/h1-20H,21H2,(H,43,44)(H,37,38,39,40)

>  <Ligand InChI Key>  (1) 
GKOCSEXCXNCOLH-UHFFFAOYSA-N

>  <BindingDB MonomerID>  (1) 
50281954

>  <BindingDB Ligand Name>  (1) 
4'-{4-Oxo-3-[2'-(2H-tetrazol-5-yl)-biphenyl-4-ylmethyl]-3,4-dihydro-quinazolin-2-yl}-biphenyl-2-carboxylic acid::CHEMBL284764

>  <Target Name>  (1) 
Type-1 angiotensin II receptor

>  <Target Source Organism According to Curator or DataSource>  (1) 
Oryctolagus cuniculus

>  <Ki (nM)>  (1) 


>  <IC50 (nM)>  (1) 
 20

>  <Kd (nM)>  (1) 


>  <EC50 (nM)>  (1) 


>  <kon (M-1-s-1)>  (1) 


>  <koff (s-1)>  (1) 


>  <pH>  (1) 


>  <Temp C>  (1) 


>  <Curation/DataSource>  (1) 
ChEMBL

>  <Article DOI>  (1) 
10.1016/S0960-894X(00)80335-2

>  <BindingDB Entry DOI>  (1) 
10.7270/Q29P31KG

>  <PMID>  (1) 


>  <PubChem AID>  (1) 


>  <Patent Number>  (1) 


>  <Authors>  (1) 
de Laszlo, SE; Allen, EE; Quagliato, CS; Greenlee, WJ; Patchett, AA; Nachbar, RB; Sieg, PK; Chang, RS; Kivlighn, SD; Schorn, TS; Faust, KA; Chen, TB; Zingaro, GJ; Lotti, VJ

>  <Institution>  (1) 
TBA

>  <Link to Ligand in BindingDB>  (1) 
http://www.bindingdb.org/bind/chemsearch/marvin/MolStructure.jsp?monomerid=50281954

>  <Link to Ligand-Target Pair in BindingDB>  (1) 
http://www.bindingdb.org/jsp/dbsearch/PrimarySearch_ki.jsp?energyterm=kJ/mole&tag=r21&monomerid=50281954&enzyme=Type-1+angiotensin+II+receptor&column=ki&startPg=0&Increment=50&submit=Search

>  <Ligand HET ID in PDB>  (1) 


>  <PDB ID(s) for Ligand-Target Complex>  (1) 


>  <PubChem CID of Ligand>  (1) 
44275060

>  <PubChem SID of Ligand>  (1) 
104123628

>  <ChEBI ID of Ligand>  (1) 


>  <ChEMBL ID of Ligand>  (1) 
CHEMBL284764

>  <DrugBank ID of Ligand>  (1) 


>  <IUPHAR_GRAC ID of Ligand>  (1) 


>  <KEGG ID of Ligand>  (1) 


>  <ZINC ID of Ligand>  (1) 
ZINC28758314

>  <Number of Protein Chains in Target (bigger than 1 implies a multichain complex)>  (1) 
1

>  <BindingDB Target Chain Sequence>  (1) 
MMLNSSTEDGIKRIQDDCPKAGRHNYIFVMIPTLYSIIFVVGIFGNSLAVIVIYFYMKLKTVASVFLLNLALADLCFLLTLPLWAVYTAMEYRWPFGNYLCKIASASVSFNLYASVFLLTCLSIDRYLAIVHPMKSRLRRTMLVAKVTCIIIWLLAGLASLPAIIHRNVFFIENTNITVCAFHYESQNSTLPIGLGLTKNILGFLFPFLIILTSYTLIWKALKKAYEIQKNKPRNDDIFKIIMAIVLFFFFSWVPHQIFTFLDVLIQLGVIHDCRIADIVDTAMPITICIAYFNNCLNPLFYGFLGKKFKKYFLQLLKYIPPKAKSHSNLSTKMSTLSYRPSDNVSSSSKKPVPCFEVE

>  <PDB ID(s) of Target Chain>  (1) 
6DO1,6OS0,6OS1,6OS2

>  <UniProt (SwissProt) Recommended Name of Target Chain>  (1) 
Type-1 angiotensin II receptor

>  <UniProt (SwissProt) Entry Name of Target Chain>  (1) 
AGTR1_RABIT

>  <UniProt (SwissProt) Primary ID of Target Chain>  (1) 
P34976

>  <UniProt (SwissProt) Secondary ID(s) of Target Chain>  (1) 


>  <UniProt (SwissProt) Alternative ID(s) of Target Chain>  (1) 


>  <UniProt (TrEMBL) Submitted Name of Target Chain>  (1) 


>  <UniProt (TrEMBL) Entry Name of Target Chain>  (1) 


>  <UniProt (TrEMBL) Primary ID of Target Chain>  (1) 


>  <UniProt (TrEMBL) Secondary ID(s) of Target Chain>  (1) 


>  <UniProt (TrEMBL) Alternative ID(s) of Target Chain>  (1) 


$$$$
