
     RDKit          2D

 44 48  0  0  0  0  0  0  0  0999 V2000
    7.1199   -0.1541    0.0000 S   0  0  0  0  0  0  0  0  0  0  0  0
    7.7319   -3.9014    0.0000 N   0  0  0  0  0  0  0  0  0  0  0  0
    7.0117   -3.4892    0.0000 C   0  0  0  0  0  0  0  0  0  0  0  0
    6.3954   -0.5538    0.0000 N   0  0  0  0  0  0  0  0  0  0  0  0
    6.2997   -3.9014    0.0000 C   0  0  0  0  0  0  0  0  0  0  0  0
    7.7319   -4.7341    0.0000 C   0  0  0  0  0  0  0  0  0  0  0  0
    7.0117   -5.1463    0.0000 N   0  0  0  0  0  0  0  0  0  0  0  0
    7.8485    0.2331    0.0000 C   0  0  0  0  0  0  0  0  0  0  0  0
    6.2997   -4.7258    0.0000 C   0  0  0  0  0  0  0  0  0  0  0  0
    8.5438   -0.2041    0.0000 C   0  0  0  0  0  0  0  0  0  0  0  0
    5.6876   -0.1166    0.0000 C   0  0  0  0  0  0  0  0  0  0  0  0
    6.4204    0.2748    0.0000 O   0  0  0  0  0  0  0  0  0  0  0  0
    7.0949   -0.9785    0.0000 O   0  0  0  0  0  0  0  0  0  0  0  0
    8.4481   -3.4975    0.0000 C   0  0  0  0  0  0  0  0  0  0  0  0
    7.8735    1.0492    0.0000 C   0  0  0  0  0  0  0  0  0  0  0  0
    5.5877   -3.4892    0.0000 C   0  0  0  0  0  0  0  0  0  0  0  0
    8.5106   -1.0285    0.0000 C   0  0  0  0  0  0  0  0  0  0  0  0
    7.0117   -2.6648    0.0000 O   0  0  0  0  0  0  0  0  0  0  0  0
    9.2725    0.1832    0.0000 C   0  0  0  0  0  0  0  0  0  0  0  0
    4.1637   -3.4975    0.0000 N   0  0  0  0  0  0  0  0  0  0  0  0
    5.5877   -5.1463    0.0000 C   0  0  0  0  0  0  0  0  0  0  0  0
    5.7126    0.7078    0.0000 O   0  0  0  0  0  0  0  0  0  0  0  0
    4.8757   -3.9097    0.0000 C   0  0  0  0  0  0  0  0  0  0  0  0
    9.2101   -1.4656    0.0000 C   0  0  0  0  0  0  0  0  0  0  0  0
    7.7819   -1.4157    0.0000 C   0  0  0  0  0  0  0  0  0  0  0  0
    8.4481   -2.6731    0.0000 C   0  0  0  0  0  0  0  0  0  0  0  0
    8.6063    1.4448    0.0000 C   0  0  0  0  0  0  0  0  0  0  0  0
    9.3058    0.9993    0.0000 C   0  0  0  0  0  0  0  0  0  0  0  0
    8.4439   -5.1463    0.0000 C   0  0  0  0  0  0  0  0  0  0  0  0
    4.8757   -4.7341    0.0000 C   0  0  0  0  0  0  0  0  0  0  0  0
    9.1809   -2.2901    0.0000 C   0  0  0  0  0  0  0  0  0  0  0  0
    7.7486   -2.2401    0.0000 C   0  0  0  0  0  0  0  0  0  0  0  0
    4.8340   -0.5913    0.0000 C   0  0  0  0  0  0  0  0  0  0  0  0
    4.1595   -2.6731    0.0000 C   0  0  0  0  0  0  0  0  0  0  0  0
   10.0345    1.3865    0.0000 C   0  0  0  0  0  0  0  0  0  0  0  0
    8.4439   -5.9707    0.0000 C   0  0  0  0  0  0  0  0  0  0  0  0
   10.7340    0.9493    0.0000 C   0  0  0  0  0  0  0  0  0  0  0  0
    3.4017   -2.3400    0.0000 C   0  0  0  0  0  0  0  0  0  0  0  0
    3.7723    0.1874    0.0000 C   0  0  0  0  0  0  0  0  0  0  0  0
    9.1559   -6.3871    0.0000 C   0  0  0  0  0  0  0  0  0  0  0  0
   11.4584    1.3323    0.0000 C   0  0  0  0  0  0  0  0  0  0  0  0
    3.3226   -1.5156    0.0000 C   0  0  0  0  0  0  0  0  0  0  0  0
    2.7772   -0.3789    0.0000 C   0  0  0  0  0  0  0  0  0  0  0  0
    2.5649   -1.1784    0.0000 C   0  0  0  0  0  0  0  0  0  0  0  0
  2 14  1  0
  3  2  1  0
  4  1  1  0
  5  3  1  0
  6  2  1  0
  7  6  2  0
  8  1  1  0
  9  7  1  0
 10  8  2  0
 11  4  1  0
 12  1  2  0
 13  1  2  0
 14 26  1  0
 15  8  1  0
 16  5  2  0
 17 10  1  0
 18  3  2  0
 19 10  1  0
 20 34  1  0
 21  9  2  0
 22 11  2  0
 23 20  1  0
 24 17  1  0
 25 17  2  0
 26 32  2  0
 27 15  2  0
 28 27  1  0
 29  6  1  0
 30 23  2  0
 31 24  2  0
 32 25  1  0
 33 11  1  0
 34 38  1  0
 35 28  1  0
 36 29  1  0
 37 35  1  0
 38 42  1  0
 39 33  1  0
 40 36  1  0
 41 37  1  0
 42 44  1  0
 43 39  1  0
 44 43  1  0
 28 19  2  0
 31 26  1  0
  9  5  1  0
 23 16  1  0
 21 30  1  0
M  END
>  <From>  (1) 
www.bindingDB.org

>  <BindingDB Reactant_set_id>  (1) 
50006245

>  <Ligand InChI>  (1) 
InChI=1S/C35H42N4O4S/c1-3-10-25-15-20-32-29(22-25)27-16-13-26(14-17-27)24-39-33(11-4-2)37-31-19-18-28(23-30(31)35(39)41)36-21-9-7-5-6-8-12-34(40)38-44(32,42)43/h13-20,22-23,36H,3-12,21,24H2,1-2H3,(H,38,40)

>  <Ligand InChI Key>  (1) 
KOVCBJQIMLYCBF-UHFFFAOYSA-N

>  <BindingDB MonomerID>  (1) 
50289163

>  <BindingDB Ligand Name>  (1) 
CHEMBL368149::Macrocyclic Quinazolinone analogue

>  <Target Name>  (1) 
Type-1 angiotensin II receptor

>  <Target Source Organism According to Curator or DataSource>  (1) 
Oryctolagus cuniculus

>  <Ki (nM)>  (1) 


>  <IC50 (nM)>  (1) 
 3.9

>  <Kd (nM)>  (1) 


>  <EC50 (nM)>  (1) 


>  <kon (M-1-s-1)>  (1) 


>  <koff (s-1)>  (1) 


>  <pH>  (1) 


>  <Temp C>  (1) 


>  <Curation/DataSource>  (1) 
ChEMBL

>  <Article DOI>  (1) 
10.1016/0960-894X(96)00116-3

>  <BindingDB Entry DOI>  (1) 
10.7270/Q2MC900D

>  <PMID>  (1) 


>  <PubChem AID>  (1) 


>  <Patent Number>  (1) 


>  <Authors>  (1) 
de Laszlo, SE; Glinka, TW; Greenlee, WJ; Ball, R; Nachbar, RB; Prendergast, K

>  <Institution>  (1) 
TBA

>  <Link to Ligand in BindingDB>  (1) 
http://www.bindingdb.org/bind/chemsearch/marvin/MolStructure.jsp?monomerid=50289163

>  <Link to Ligand-Target Pair in BindingDB>  (1) 
http://www.bindingdb.org/jsp/dbsearch/PrimarySearch_ki.jsp?energyterm=kJ/mole&tag=r21&monomerid=50289163&enzyme=Type-1+angiotensin+II+receptor&column=ki&startPg=0&Increment=50&submit=Search

>  <Ligand HET ID in PDB>  (1) 


>  <PDB ID(s) for Ligand-Target Complex>  (1) 


>  <PubChem CID of Ligand>  (1) 
44211677

>  <PubChem SID of Ligand>  (1) 
104130734

>  <ChEBI ID of Ligand>  (1) 


>  <ChEMBL ID of Ligand>  (1) 
CHEMBL368149

>  <DrugBank ID of Ligand>  (1) 


>  <IUPHAR_GRAC ID of Ligand>  (1) 


>  <KEGG ID of Ligand>  (1) 


>  <ZINC ID of Ligand>  (1) 
ZINC03842219

>  <Number of Protein Chains in Target (bigger than 1 implies a multichain complex)>  (1) 
1

>  <BindingDB Target Chain Sequence>  (1) 
MMLNSSTEDGIKRIQDDCPKAGRHNYIFVMIPTLYSIIFVVGIFGNSLAVIVIYFYMKLKTVASVFLLNLALADLCFLLTLPLWAVYTAMEYRWPFGNYLCKIASASVSFNLYASVFLLTCLSIDRYLAIVHPMKSRLRRTMLVAKVTCIIIWLLAGLASLPAIIHRNVFFIENTNITVCAFHYESQNSTLPIGLGLTKNILGFLFPFLIILTSYTLIWKALKKAYEIQKNKPRNDDIFKIIMAIVLFFFFSWVPHQIFTFLDVLIQLGVIHDCRIADIVDTAMPITICIAYFNNCLNPLFYGFLGKKFKKYFLQLLKYIPPKAKSHSNLSTKMSTLSYRPSDNVSSSSKKPVPCFEVE

>  <PDB ID(s) of Target Chain>  (1) 
6DO1,6OS0,6OS1,6OS2

>  <UniProt (SwissProt) Recommended Name of Target Chain>  (1) 
Type-1 angiotensin II receptor

>  <UniProt (SwissProt) Entry Name of Target Chain>  (1) 
AGTR1_RABIT

>  <UniProt (SwissProt) Primary ID of Target Chain>  (1) 
P34976

>  <UniProt (SwissProt) Secondary ID(s) of Target Chain>  (1) 


>  <UniProt (SwissProt) Alternative ID(s) of Target Chain>  (1) 


>  <UniProt (TrEMBL) Submitted Name of Target Chain>  (1) 


>  <UniProt (TrEMBL) Entry Name of Target Chain>  (1) 


>  <UniProt (TrEMBL) Primary ID of Target Chain>  (1) 


>  <UniProt (TrEMBL) Secondary ID(s) of Target Chain>  (1) 


>  <UniProt (TrEMBL) Alternative ID(s) of Target Chain>  (1) 


$$$$
