
     RDKit          2D

 35 39  0  0  0  0  0  0  0  0999 V2000
   -2.8458   -3.0542    0.0000 C   0  0  0  0  0  0  0  0  0  0  0  0
   -2.8458    1.0708    0.0000 N   0  0  0  0  0  0  0  0  0  0  0  0
   -2.8458   -3.8792    0.0000 C   0  0  0  0  0  0  0  0  0  0  0  0
   -2.0958    0.7333    0.0000 C   0  0  0  0  0  0  0  0  0  0  0  0
   -3.5583   -2.6500    0.0000 C   0  0  0  0  0  0  0  0  0  0  0  0
   -4.2833   -3.0625    0.0000 C   0  0  0  0  0  0  0  0  0  0  0  0
   -1.9583    2.0583    0.0000 N   0  0  0  0  0  0  0  0  0  0  0  0
   -3.5583   -4.3000    0.0000 N   0  0  0  0  0  0  0  0  0  0  0  0
   -2.7625    1.8833    0.0000 C   0  0  0  0  0  0  0  0  0  0  0  0
   -1.5458    1.3458    0.0000 C   0  0  0  0  0  0  0  0  0  0  0  0
   -4.2708   -3.8792    0.0000 C   0  0  0  0  0  0  0  0  0  0  0  0
   -1.8458   -0.0542    0.0000 N   0  0  0  0  0  0  0  0  0  0  0  0
   -2.1333   -2.6417    0.0000 C   0  0  0  0  0  0  0  0  0  0  0  0
   -0.7375    1.1750    0.0000 C   0  0  0  0  0  0  0  0  0  0  0  0
   -3.5583   -1.8250    0.0000 C   0  0  0  0  0  0  0  0  0  0  0  0
   -3.5625    0.6583    0.0000 C   0  0  0  0  0  0  0  0  0  0  0  0
   -4.9875   -2.6542    0.0000 C   0  0  0  0  0  0  0  0  0  0  0  0
   -2.1250   -4.2917    0.0000 O   0  0  0  0  0  0  0  0  0  0  0  0
   -1.0333   -0.2167    0.0000 C   0  0  0  0  0  0  0  0  0  0  0  0
   -4.9833   -4.3000    0.0000 C   0  0  0  0  0  0  0  0  0  0  0  0
   -0.4833    0.3958    0.0000 C   0  0  0  0  0  0  0  0  0  0  0  0
   -2.1333   -1.8167    0.0000 O   0  0  0  0  0  0  0  0  0  0  0  0
   -5.7083   -3.0667    0.0000 C   0  0  0  0  0  0  0  0  0  0  0  0
   -5.6958   -3.8917    0.0000 C   0  0  0  0  0  0  0  0  0  0  0  0
   -4.2708   -1.4125    0.0000 C   0  0  0  0  0  0  0  0  0  0  0  0
   -2.8458   -1.4125    0.0000 C   0  0  0  0  0  0  0  0  0  0  0  0
   -3.5583   -0.1667    0.0000 C   0  0  0  0  0  0  0  0  0  0  0  0
   -3.5583   -5.1250    0.0000 C   0  0  0  0  0  0  0  0  0  0  0  0
   -1.4125   -3.0542    0.0000 O   0  0  0  0  0  0  0  0  0  0  0  0
   -3.3750    2.4333    0.0000 C   0  0  0  0  0  0  0  0  0  0  0  0
   -2.8458   -0.5792    0.0000 C   0  0  0  0  0  0  0  0  0  0  0  0
   -4.2708   -0.5875    0.0000 C   0  0  0  0  0  0  0  0  0  0  0  0
   -0.1875    1.7958    0.0000 C   0  0  0  0  0  0  0  0  0  0  0  0
   -0.7708   -1.0042    0.0000 C   0  0  0  0  0  0  0  0  0  0  0  0
   -3.2083    3.2458    0.0000 C   0  0  0  0  0  0  0  0  0  0  0  0
  2 16  1  0
  3  1  1  0
  4  2  1  0
  5  1  1  0
  6  5  2  0
  7  9  2  0
  8  3  1  0
  9  2  1  0
 10  4  2  0
 11  6  1  0
 12  4  1  0
 13  1  1  0
 14 10  1  0
 15  5  1  0
 16 27  1  0
 17  6  1  0
 18  3  2  0
 19 12  2  0
 20 11  1  0
 21 19  1  0
 22 13  2  0
 23 17  2  0
 24 23  1  0
 25 15  2  0
 26 15  1  0
 27 31  1  0
 28  8  1  0
 29 13  1  0
 30  9  1  0
 31 26  2  0
 32 25  1  0
 33 14  1  0
 34 19  1  0
 35 30  1  0
 11  8  1  0
 32 27  2  0
 24 20  2  0
 10  7  1  0
 21 14  2  0
M  END
>  <From>  (1) 
www.bindingDB.org

>  <BindingDB Reactant_set_id>  (1) 
50267983

>  <Ligand InChI>  (1) 
InChI=1S/C28H28N4O3/c1-5-22-30-25-16(2)14-17(3)29-26(25)32(22)15-18-10-12-19(13-11-18)23-20-8-6-7-9-21(20)31(4)27(33)24(23)28(34)35/h6-14,21,24H,5,15H2,1-4H3,(H,34,35)

>  <Ligand InChI Key>  (1) 
XZAPETFYSPSINT-UHFFFAOYSA-N

>  <BindingDB MonomerID>  (1) 
50145966

>  <BindingDB Ligand Name>  (1) 
4-[4-(2-Ethyl-5,7-dimethyl-imidazo[4,5-b]pyridin-3-ylmethyl)-phenyl]-1-methyl-2-oxo-1,2,3,8a-tetrahydro-quinoline-3-carboxylic acid::CHEMBL87694

>  <Target Name>  (1) 
Type-1 angiotensin II receptor B

>  <Target Source Organism According to Curator or DataSource>  (1) 
Rattus

>  <Ki (nM)>  (1) 


>  <IC50 (nM)>  (1) 
 326

>  <Kd (nM)>  (1) 


>  <EC50 (nM)>  (1) 


>  <kon (M-1-s-1)>  (1) 


>  <koff (s-1)>  (1) 


>  <pH>  (1) 


>  <Temp C>  (1) 


>  <Curation/DataSource>  (1) 
ChEMBL

>  <Article DOI>  (1) 
10.1021/jm031100t

>  <BindingDB Entry DOI>  (1) 
10.7270/Q25X28DX

>  <PMID>  (1) 
15115399

>  <PubChem AID>  (1) 


>  <Patent Number>  (1) 


>  <Authors>  (1) 
Cappelli, A; Pericot Mohr Gl, G; Gallelli, A; Rizzo, M; Anzini, M; Vomero, S; Mennuni, L; Ferrari, F; Makovec, F; Menziani, MC; De Benedetti, PG; Giorgi, G

>  <Institution>  (1) 
Universit&#224; di Siena

>  <Link to Ligand in BindingDB>  (1) 
http://www.bindingdb.org/bind/chemsearch/marvin/MolStructure.jsp?monomerid=50145966

>  <Link to Ligand-Target Pair in BindingDB>  (1) 
http://www.bindingdb.org/jsp/dbsearch/PrimarySearch_ki.jsp?energyterm=kJ/mole&tag=r21&monomerid=50145966&enzyme=Type-1+angiotensin+II+receptor+B&column=ki&startPg=0&Increment=50&submit=Search

>  <Ligand HET ID in PDB>  (1) 


>  <PDB ID(s) for Ligand-Target Complex>  (1) 


>  <PubChem CID of Ligand>  (1) 
44320536

>  <PubChem SID of Ligand>  (1) 
104034652

>  <ChEBI ID of Ligand>  (1) 


>  <ChEMBL ID of Ligand>  (1) 
CHEMBL87694

>  <DrugBank ID of Ligand>  (1) 


>  <IUPHAR_GRAC ID of Ligand>  (1) 


>  <KEGG ID of Ligand>  (1) 


>  <ZINC ID of Ligand>  (1) 
ZINC26575661

>  <Number of Protein Chains in Target (bigger than 1 implies a multichain complex)>  (1) 
1

>  <BindingDB Target Chain Sequence>  (1) 
MTLNSSTEDGIKRIQDDCPKAGRHNYIFVMIPTLYSIIFVVGIFGNSLVVIVIYFYMKLKTVASVFLLNLALADLCFLLTLPLWAVYTAMEYRWPFGNHLCKIASASVSFNLYASVFLLTCLSIDRYLAIVHPMKSRLRRTMLVAKVTCIIIWLMAGLASLPAVIYRNVYFIENTNITVCAFHYESQNSTLPIGLGLTKNILGFVFPFLIILTSYTLIWKALKKAYKIQKNTPRNDDIFRIIMAIVLFFFFSWVPHQIFTFLDVLIQLGIIRDCEIADIVDTAMPITICIAYFNNCLNPLFYGFLGKKFKKYFLQLLKYIPPTAKSHAGLSTKMSTLSYRPSDNMSSSAKKSASFFEVE

>  <PDB ID(s) of Target Chain>  (1) 


>  <UniProt (SwissProt) Recommended Name of Target Chain>  (1) 
Type-1 angiotensin II receptor B

>  <UniProt (SwissProt) Entry Name of Target Chain>  (1) 
AGTRB_RAT

>  <UniProt (SwissProt) Primary ID of Target Chain>  (1) 
P29089

>  <UniProt (SwissProt) Secondary ID(s) of Target Chain>  (1) 


>  <UniProt (SwissProt) Alternative ID(s) of Target Chain>  (1) 


>  <UniProt (TrEMBL) Submitted Name of Target Chain>  (1) 


>  <UniProt (TrEMBL) Entry Name of Target Chain>  (1) 


>  <UniProt (TrEMBL) Primary ID of Target Chain>  (1) 


>  <UniProt (TrEMBL) Secondary ID(s) of Target Chain>  (1) 


>  <UniProt (TrEMBL) Alternative ID(s) of Target Chain>  (1) 


$$$$
