
     RDKit          2D

 40 45  0  0  0  0  0  0  0  0999 V2000
    5.8917   -4.7125    0.0000 N   0  0  0  0  0  0  0  0  0  0  0  0
    5.1750   -4.3042    0.0000 C   0  0  0  0  0  0  0  0  0  0  0  0
    4.4667   -4.7167    0.0000 C   0  0  0  0  0  0  0  0  0  0  0  0
    5.8917   -5.5417    0.0000 C   0  0  0  0  0  0  0  0  0  0  0  0
    5.1792   -5.9542    0.0000 N   0  0  0  0  0  0  0  0  0  0  0  0
    9.8875   -2.8625    0.0000 C   0  0  0  0  0  0  0  0  0  0  0  0
    9.0625   -2.7792    0.0000 N   0  0  0  0  0  0  0  0  0  0  0  0
    8.8792   -1.9792    0.0000 N   0  0  0  0  0  0  0  0  0  0  0  0
   10.2042   -2.1042    0.0000 N   0  0  0  0  0  0  0  0  0  0  0  0
    4.4667   -5.5417    0.0000 C   0  0  0  0  0  0  0  0  0  0  0  0
    9.5917   -1.5542    0.0000 N   0  0  0  0  0  0  0  0  0  0  0  0
    3.7500   -4.3042    0.0000 C   0  0  0  0  0  0  0  0  0  0  0  0
   10.3042   -3.5750    0.0000 C   0  0  0  0  0  0  0  0  0  0  0  0
    9.8917   -4.2917    0.0000 C   0  0  0  0  0  0  0  0  0  0  0  0
    3.0375   -4.7250    0.0000 C   0  0  0  0  0  0  0  0  0  0  0  0
    6.6042   -4.2917    0.0000 C   0  0  0  0  0  0  0  0  0  0  0  0
    5.1667   -3.4792    0.0000 O   0  0  0  0  0  0  0  0  0  0  0  0
    9.0667   -4.2917    0.0000 C   0  0  0  0  0  0  0  0  0  0  0  0
    2.3167   -4.3125    0.0000 C   0  0  0  0  0  0  0  0  0  0  0  0
    3.7500   -5.9625    0.0000 C   0  0  0  0  0  0  0  0  0  0  0  0
    3.0375   -5.5500    0.0000 C   0  0  0  0  0  0  0  0  0  0  0  0
    8.6625   -5.0042    0.0000 C   0  0  0  0  0  0  0  0  0  0  0  0
    8.6542   -3.5792    0.0000 C   0  0  0  0  0  0  0  0  0  0  0  0
    2.3167   -3.4792    0.0000 C   0  0  0  0  0  0  0  0  0  0  0  0
    1.6167   -4.7167    0.0000 C   0  0  0  0  0  0  0  0  0  0  0  0
    7.4292   -4.2917    0.0000 C   0  0  0  0  0  0  0  0  0  0  0  0
    0.8917   -3.4792    0.0000 C   0  0  0  0  0  0  0  0  0  0  0  0
    6.4792   -6.1167    0.0000 C   0  0  0  0  0  0  0  0  0  0  0  0
    7.8375   -5.0042    0.0000 C   0  0  0  0  0  0  0  0  0  0  0  0
    7.8292   -3.5792    0.0000 C   0  0  0  0  0  0  0  0  0  0  0  0
    0.9000   -4.3125    0.0000 C   0  0  0  0  0  0  0  0  0  0  0  0
    1.6125   -3.0667    0.0000 C   0  0  0  0  0  0  0  0  0  0  0  0
    0.1792   -3.0750    0.0000 Cl  0  0  0  0  0  0  0  0  0  0  0  0
   11.1250   -3.5667    0.0000 C   0  0  0  0  0  0  0  0  0  0  0  0
   10.3125   -5.0042    0.0000 C   0  0  0  0  0  0  0  0  0  0  0  0
    7.2750   -5.9042    0.0000 C   0  0  0  0  0  0  0  0  0  0  0  0
    7.8542   -6.4875    0.0000 C   0  0  0  0  0  0  0  0  0  0  0  0
   11.5417   -4.2875    0.0000 C   0  0  0  0  0  0  0  0  0  0  0  0
   11.1292   -5.0042    0.0000 C   0  0  0  0  0  0  0  0  0  0  0  0
    8.6542   -6.2750    0.0000 C   0  0  0  0  0  0  0  0  0  0  0  0
  2  1  1  0
  3  2  1  0
  4  1  1  0
  5  4  2  0
  6 13  1  0
  7  6  1  0
  8  7  1  0
  9  6  2  0
 10  5  1  0
 11  9  1  0
 12  3  2  0
 13 14  1  0
 14 18  1  0
 15 12  1  0
 16  1  1  0
 17  2  2  0
 18 23  2  0
 19 15  1  0
 20 10  2  0
 21 20  1  0
 22 29  2  0
 23 30  1  0
 24 19  2  0
 25 19  1  0
 26 16  1  0
 27 31  1  0
 28  4  1  0
 29 26  1  0
 30 26  2  0
 31 25  2  0
 32 24  1  0
 33 27  1  0
 34 13  2  0
 35 14  2  0
 36 28  1  0
 37 36  1  0
 38 39  2  0
 39 35  1  0
 40 37  1  0
 10  3  1  0
 18 22  1  0
 21 15  2  0
 27 32  2  0
 38 34  1  0
  8 11  2  0
M  END
>  <From>  (1) 
www.bindingDB.org

>  <BindingDB Reactant_set_id>  (1) 
50002383

>  <Ligand InChI>  (1) 
InChI=1S/C32H27ClN6O/c1-2-3-8-30-34-29-18-15-24(22-13-16-25(33)17-14-22)19-28(29)32(40)39(30)20-21-9-11-23(12-10-21)26-6-4-5-7-27(26)31-35-37-38-36-31/h4-7,9-19H,2-3,8,20H2,1H3,(H,35,36,37,38)

>  <Ligand InChI Key>  (1) 
ZREXRHAEDHFVCA-UHFFFAOYSA-N

>  <BindingDB MonomerID>  (1) 
50281958

>  <BindingDB Ligand Name>  (1) 
2-Butyl-6-(4-chloro-phenyl)-3-[2'-(2H-tetrazol-5-yl)-biphenyl-4-ylmethyl]-3H-quinazolin-4-one::CHEMBL24764

>  <Target Name>  (1) 
Type-1 angiotensin II receptor

>  <Target Source Organism According to Curator or DataSource>  (1) 
Oryctolagus cuniculus

>  <Ki (nM)>  (1) 


>  <IC50 (nM)>  (1) 
 30

>  <Kd (nM)>  (1) 


>  <EC50 (nM)>  (1) 


>  <kon (M-1-s-1)>  (1) 


>  <koff (s-1)>  (1) 


>  <pH>  (1) 


>  <Temp C>  (1) 


>  <Curation/DataSource>  (1) 
ChEMBL

>  <Article DOI>  (1) 
10.1016/S0960-894X(00)80335-2

>  <BindingDB Entry DOI>  (1) 
10.7270/Q29P31KG

>  <PMID>  (1) 


>  <PubChem AID>  (1) 


>  <Patent Number>  (1) 


>  <Authors>  (1) 
de Laszlo, SE; Allen, EE; Quagliato, CS; Greenlee, WJ; Patchett, AA; Nachbar, RB; Sieg, PK; Chang, RS; Kivlighn, SD; Schorn, TS; Faust, KA; Chen, TB; Zingaro, GJ; Lotti, VJ

>  <Institution>  (1) 
TBA

>  <Link to Ligand in BindingDB>  (1) 
http://www.bindingdb.org/bind/chemsearch/marvin/MolStructure.jsp?monomerid=50281958

>  <Link to Ligand-Target Pair in BindingDB>  (1) 
http://www.bindingdb.org/jsp/dbsearch/PrimarySearch_ki.jsp?energyterm=kJ/mole&tag=r21&monomerid=50281958&enzyme=Type-1+angiotensin+II+receptor&column=ki&startPg=0&Increment=50&submit=Search

>  <Ligand HET ID in PDB>  (1) 


>  <PDB ID(s) for Ligand-Target Complex>  (1) 


>  <PubChem CID of Ligand>  (1) 
44275076

>  <PubChem SID of Ligand>  (1) 
104123632

>  <ChEBI ID of Ligand>  (1) 


>  <ChEMBL ID of Ligand>  (1) 
CHEMBL24764

>  <DrugBank ID of Ligand>  (1) 


>  <IUPHAR_GRAC ID of Ligand>  (1) 


>  <KEGG ID of Ligand>  (1) 


>  <ZINC ID of Ligand>  (1) 
ZINC28758335

>  <Number of Protein Chains in Target (bigger than 1 implies a multichain complex)>  (1) 
1

>  <BindingDB Target Chain Sequence>  (1) 
MMLNSSTEDGIKRIQDDCPKAGRHNYIFVMIPTLYSIIFVVGIFGNSLAVIVIYFYMKLKTVASVFLLNLALADLCFLLTLPLWAVYTAMEYRWPFGNYLCKIASASVSFNLYASVFLLTCLSIDRYLAIVHPMKSRLRRTMLVAKVTCIIIWLLAGLASLPAIIHRNVFFIENTNITVCAFHYESQNSTLPIGLGLTKNILGFLFPFLIILTSYTLIWKALKKAYEIQKNKPRNDDIFKIIMAIVLFFFFSWVPHQIFTFLDVLIQLGVIHDCRIADIVDTAMPITICIAYFNNCLNPLFYGFLGKKFKKYFLQLLKYIPPKAKSHSNLSTKMSTLSYRPSDNVSSSSKKPVPCFEVE

>  <PDB ID(s) of Target Chain>  (1) 
6DO1,6OS0,6OS1,6OS2

>  <UniProt (SwissProt) Recommended Name of Target Chain>  (1) 
Type-1 angiotensin II receptor

>  <UniProt (SwissProt) Entry Name of Target Chain>  (1) 
AGTR1_RABIT

>  <UniProt (SwissProt) Primary ID of Target Chain>  (1) 
P34976

>  <UniProt (SwissProt) Secondary ID(s) of Target Chain>  (1) 


>  <UniProt (SwissProt) Alternative ID(s) of Target Chain>  (1) 


>  <UniProt (TrEMBL) Submitted Name of Target Chain>  (1) 


>  <UniProt (TrEMBL) Entry Name of Target Chain>  (1) 


>  <UniProt (TrEMBL) Primary ID of Target Chain>  (1) 


>  <UniProt (TrEMBL) Secondary ID(s) of Target Chain>  (1) 


>  <UniProt (TrEMBL) Alternative ID(s) of Target Chain>  (1) 


$$$$
