
     RDKit          2D

 34 37  0  0  0  0  0  0  0  0999 V2000
   15.9866  -14.1688    0.0000 C   0  0  0  0  0  0  0  0  0  0  0  0
   16.6913  -13.7396    0.0000 C   0  0  0  0  0  0  0  0  0  0  0  0
   17.4146  -14.1347    0.0000 C   0  0  0  0  0  0  0  0  0  0  0  0
   17.4374  -14.9601    0.0000 C   0  0  0  0  0  0  0  0  0  0  0  0
   16.7326  -15.3892    0.0000 C   0  0  0  0  0  0  0  0  0  0  0  0
   16.0093  -14.9941    0.0000 C   0  0  0  0  0  0  0  0  0  0  0  0
   15.2632  -13.7736    0.0000 C   0  0  0  0  0  0  0  0  0  0  0  0
   14.5573  -14.2067    0.0000 C   0  0  0  0  0  0  0  0  0  0  0  0
   13.8340  -13.8116    0.0000 C   0  0  0  0  0  0  0  0  0  0  0  0
   13.8113  -12.9862    0.0000 C   0  0  0  0  0  0  0  0  0  0  0  0
   14.5160  -12.5571    0.0000 C   0  0  0  0  0  0  0  0  0  0  0  0
   15.2394  -12.9523    0.0000 C   0  0  0  0  0  0  0  0  0  0  0  0
   16.6687  -12.9143    0.0000 C   0  0  0  0  0  0  0  0  0  0  0  0
   17.3734  -12.4851    0.0000 O   0  0  0  0  0  0  0  0  0  0  0  0
   15.9454  -12.5192    0.0000 O   0  0  0  0  0  0  0  0  0  0  0  0
   13.0879  -12.5911    0.0000 C   0  0  0  0  0  0  0  0  0  0  0  0
   13.5553  -11.0963    0.0000 C   0  0  0  0  0  0  0  0  0  0  0  0
   13.0705  -10.4309    0.0000 N   0  0  0  0  0  0  0  0  0  0  0  0
   12.2859  -10.6838    0.0000 C   0  0  0  0  0  0  0  0  0  0  0  0
   12.2859  -11.5088    0.0000 C   0  0  0  0  0  0  0  0  0  0  0  0
   13.0705  -11.7659    0.0000 N   0  0  0  0  0  0  0  0  0  0  0  0
   11.5700  -10.2713    0.0000 C   0  0  0  0  0  0  0  0  0  0  0  0
   10.8541  -10.6838    0.0000 C   0  0  0  0  0  0  0  0  0  0  0  0
   10.8541  -11.5088    0.0000 C   0  0  0  0  0  0  0  0  0  0  0  0
   11.5700  -11.9213    0.0000 C   0  0  0  0  0  0  0  0  0  0  0  0
   14.3802  -11.0963    0.0000 C   0  0  0  0  0  0  0  0  0  0  0  0
   14.7927  -10.3847    0.0000 C   0  0  0  0  0  0  0  0  0  0  0  0
   15.6177  -10.3847    0.0000 C   0  0  0  0  0  0  0  0  0  0  0  0
   11.5700   -9.4464    0.0000 C   0  0  0  0  0  0  0  0  0  0  0  0
   10.1424  -11.9213    0.0000 N   0  0  0  0  0  0  0  0  0  0  0  0
    9.4266  -11.5088    0.0000 C   0  0  0  0  0  0  0  0  0  0  0  0
    9.4266  -10.6838    0.0000 O   0  0  0  0  0  0  0  0  0  0  0  0
    8.7108  -11.9213    0.0000 O   0  0  0  0  0  0  0  0  0  0  0  0
    8.7108  -12.7463    0.0000 C   0  0  0  0  0  0  0  0  0  0  0  0
  1  2  2  0
  2  3  1  0
  3  4  2  0
  4  5  1  0
  5  6  2  0
  1  6  1  0
  7  8  2  0
  8  9  1  0
  9 10  2  0
 10 11  1  0
 11 12  2  0
  7 12  1  0
  1  7  1  0
 13 14  2  0
 13 15  1  0
  2 13  1  0
 17 18  2  0
 18 19  1  0
 19 20  2  0
 20 21  1  0
 17 21  1  0
 22 23  2  0
 23 24  1  0
 24 25  2  0
 20 25  1  0
 19 22  1  0
 26 27  1  0
 27 28  1  0
 17 26  1  0
 22 29  1  0
 31 32  2  0
 33 34  1  0
 31 33  1  0
 30 31  1  0
 24 30  1  0
 16 21  1  0
 10 16  1  0
M  END
>  <From>  (1) 
www.bindingDB.org

>  <BindingDB Reactant_set_id>  (1) 
51199725

>  <Ligand InChI>  (1) 
InChI=1S/C27H27N3O4/c1-4-7-24-29-25-17(2)14-20(28-27(33)34-3)15-23(25)30(24)16-18-10-12-19(13-11-18)21-8-5-6-9-22(21)26(31)32/h5-6,8-15H,4,7,16H2,1-3H3,(H,28,33)(H,31,32)

>  <Ligand InChI Key>  (1) 
SFHCKPZDSBPRTO-UHFFFAOYSA-N

>  <BindingDB MonomerID>  (1) 
50493583

>  <BindingDB Ligand Name>  (1) 
CHEMBL2435829

>  <Target Name>  (1) 
Type-1 angiotensin II receptor

>  <Target Source Organism According to Curator or DataSource>  (1) 
Homo sapiens

>  <Ki (nM)>  (1) 


>  <IC50 (nM)>  (1) 
 0.700000

>  <Kd (nM)>  (1) 


>  <EC50 (nM)>  (1) 


>  <kon (M-1-s-1)>  (1) 


>  <koff (s-1)>  (1) 


>  <pH>  (1) 


>  <Temp C>  (1) 


>  <Curation/DataSource>  (1) 
ChEMBL

>  <Article DOI>  (1) 
10.1016/j.ejmech.2013.08.014

>  <BindingDB Entry DOI>  (1) 
10.7270/Q2PK0K32

>  <PMID>  (1) 
24007859

>  <PubChem AID>  (1) 


>  <Patent Number>  (1) 


>  <Authors>  (1) 
Zhang, J; Wang, JL; Yu, WF; Zhou, ZM; Tao, WC; Wang, YC; Xue, WZ; Xu, D; Hao, LP; Han, XF; Fei, F; Liu, T; Liang, AH

>  <Institution>  (1) 
Beijing Institute of Technology

>  <Link to Ligand in BindingDB>  (1) 
http://www.bindingdb.org/bind/chemsearch/marvin/MolStructure.jsp?monomerid=50493583

>  <Link to Ligand-Target Pair in BindingDB>  (1) 
http://www.bindingdb.org/jsp/dbsearch/PrimarySearch_ki.jsp?energyterm=kJ/mole&tag=r21&monomerid=50493583&enzyme=Type-1+angiotensin+II+receptor&column=ki&startPg=0&Increment=50&submit=Search

>  <Ligand HET ID in PDB>  (1) 


>  <PDB ID(s) for Ligand-Target Complex>  (1) 


>  <PubChem CID of Ligand>  (1) 
60148656

>  <PubChem SID of Ligand>  (1) 
433960848

>  <ChEBI ID of Ligand>  (1) 


>  <ChEMBL ID of Ligand>  (1) 


>  <DrugBank ID of Ligand>  (1) 


>  <IUPHAR_GRAC ID of Ligand>  (1) 


>  <KEGG ID of Ligand>  (1) 


>  <ZINC ID of Ligand>  (1) 


>  <Number of Protein Chains in Target (bigger than 1 implies a multichain complex)>  (1) 
1

>  <BindingDB Target Chain Sequence>  (1) 
MILNSSTEDGIKRIQDDCPKAGRHNYIFVMIPTLYSIIFVVGIFGNSLVVIVIYFYMKLKTVASVFLLNLALADLCFLLTLPLWAVYTAMEYRWPFGNYLCKIASASVSFNLYASVFLLTCLSIDRYLAIVHPMKSRLRRTMLVAKVTCIIIWLLAGLASLPAIIHRNVFFIENTNITVCAFHYESQNSTLPIGLGLTKNILGFLFPFLIILTSYTLIWKALKKAYEIQKNKPRNDDIFKIIMAIVLFFFFSWIPHQIFTFLDVLIQLGIIRDCRIADIVDTAMPITICIAYFNNCLNPLFYGFLGKKFKRYFLQLLKYIPPKAKSHSNLSTKMSTLSYRPSDNVSSSTKKPAPCFEVE

>  <PDB ID(s) of Target Chain>  (1) 
6DO1,6OS0,6OS1,6OS2

>  <UniProt (SwissProt) Recommended Name of Target Chain>  (1) 
Type-1 angiotensin II receptor

>  <UniProt (SwissProt) Entry Name of Target Chain>  (1) 
AGTR1_HUMAN

>  <UniProt (SwissProt) Primary ID of Target Chain>  (1) 
P30556

>  <UniProt (SwissProt) Secondary ID(s) of Target Chain>  (1) 
Q13725 Q8TBK4

>  <UniProt (SwissProt) Alternative ID(s) of Target Chain>  (1) 


>  <UniProt (TrEMBL) Submitted Name of Target Chain>  (1) 


>  <UniProt (TrEMBL) Entry Name of Target Chain>  (1) 


>  <UniProt (TrEMBL) Primary ID of Target Chain>  (1) 


>  <UniProt (TrEMBL) Secondary ID(s) of Target Chain>  (1) 


>  <UniProt (TrEMBL) Alternative ID(s) of Target Chain>  (1) 


$$$$
