
     RDKit          2D

 38 42  0  0  0  0  0  0  0  0999 V2000
    4.5986  -18.7750    0.0000 C   0  0  0  0  0  0  0  0  0  0  0  0
    4.5974  -19.6023    0.0000 C   0  0  0  0  0  0  0  0  0  0  0  0
    5.3122  -20.0152    0.0000 C   0  0  0  0  0  0  0  0  0  0  0  0
    6.0287  -19.6019    0.0000 C   0  0  0  0  0  0  0  0  0  0  0  0
    6.0258  -18.7713    0.0000 C   0  0  0  0  0  0  0  0  0  0  0  0
    5.3104  -18.3622    0.0000 C   0  0  0  0  0  0  0  0  0  0  0  0
    6.7387  -18.3561    0.0000 S   0  0  0  0  0  0  0  0  0  0  0  0
    7.4547  -18.7659    0.0000 N   0  0  0  0  0  0  0  0  0  0  0  0
    6.3208  -17.6375    0.0000 O   0  0  0  0  0  0  0  0  0  0  0  0
    7.1458  -17.6375    0.0000 O   0  0  0  0  0  0  0  0  0  0  0  0
    8.1677  -18.3507    0.0000 C   0  0  0  0  0  0  0  0  0  0  0  0
    8.9474  -18.6169    0.0000 C   0  0  0  0  0  0  0  0  0  0  0  0
    9.4392  -17.9545    0.0000 C   0  0  0  0  0  0  0  0  0  0  0  0
    8.9612  -17.2820    0.0000 N   0  0  0  0  0  0  0  0  0  0  0  0
    8.1740  -17.5290    0.0000 O   0  0  0  0  0  0  0  0  0  0  0  0
   10.2641  -17.9630    0.0000 C   0  0  0  0  0  0  0  0  0  0  0  0
    9.1924  -19.4047    0.0000 C   0  0  0  0  0  0  0  0  0  0  0  0
    5.3051  -17.5401    0.0000 C   0  0  0  0  0  0  0  0  0  0  0  0
    6.0200  -17.1260    0.0000 C   0  0  0  0  0  0  0  0  0  0  0  0
    6.0179  -16.3018    0.0000 C   0  0  0  0  0  0  0  0  0  0  0  0
    5.3016  -15.8906    0.0000 C   0  0  0  0  0  0  0  0  0  0  0  0
    4.5861  -16.3097    0.0000 C   0  0  0  0  0  0  0  0  0  0  0  0
    4.5917  -17.1325    0.0000 C   0  0  0  0  0  0  0  0  0  0  0  0
    5.2981  -15.0656    0.0000 C   0  0  0  0  0  0  0  0  0  0  0  0
    4.5816  -14.6565    0.0000 N   0  0  0  0  0  0  0  0  0  0  0  0
    4.5728  -13.8345    0.0000 C   0  0  0  0  0  0  0  0  0  0  0  0
    3.7848  -13.5902    0.0000 N   0  0  0  0  0  0  0  0  0  0  0  0
    3.8030  -14.9249    0.0000 C   0  0  0  0  0  0  0  0  0  0  0  0
    3.3081  -14.2614    0.0000 C   0  0  0  0  0  0  0  0  0  0  0  0
    2.4880  -14.3591    0.0000 C   0  0  0  0  0  0  0  0  0  0  0  0
    2.1618  -15.1195    0.0000 C   0  0  0  0  0  0  0  0  0  0  0  0
    2.6618  -15.7831    0.0000 C   0  0  0  0  0  0  0  0  0  0  0  0
    3.4801  -15.6822    0.0000 C   0  0  0  0  0  0  0  0  0  0  0  0
    5.2343  -13.3415    0.0000 C   0  0  0  0  0  0  0  0  0  0  0  0
    5.9920  -13.6679    0.0000 C   0  0  0  0  0  0  0  0  0  0  0  0
    6.6535  -13.1749    0.0000 C   0  0  0  0  0  0  0  0  0  0  0  0
    7.4112  -13.5012    0.0000 C   0  0  0  0  0  0  0  0  0  0  0  0
    2.3396  -16.5426    0.0000 F   0  0  0  0  0  0  0  0  0  0  0  0
 18 19  2  0
  4  5  2  0
 19 20  1  0
  7 10  2  0
 20 21  2  0
  2  3  2  0
 21 22  1  0
  8 11  1  0
 22 23  2  0
 23 18  1  0
  6 18  1  0
 11 12  2  0
 21 24  1  0
  5  6  1  0
 24 25  1  0
 25 26  1  0
  6  1  2  0
  1  2  1  0
 26 27  2  0
 27 29  1  0
 28 25  1  0
  5  7  1  0
 12 13  1  0
 28 29  2  0
 13 14  2  0
 29 30  1  0
 14 15  1  0
 30 31  2  0
 15 11  1  0
 31 32  1  0
  3  4  1  0
 32 33  2  0
 33 28  1  0
 13 16  1  0
 26 34  1  0
  7  8  1  0
 34 35  1  0
 12 17  1  0
 35 36  1  0
 36 37  1  0
  7  9  2  0
 32 38  1  0
M  END
>  <From>  (1) 
www.bindingDB.org

>  <BindingDB Reactant_set_id>  (1) 
50945421

>  <Ligand InChI>  (1) 
InChI=1S/C29H29FN4O3S/c1-4-5-10-28-31-25-16-15-23(30)17-26(25)34(28)18-21-11-13-22(14-12-21)24-8-6-7-9-27(24)38(35,36)33-29-19(2)20(3)32-37-29/h6-9,11-17,33H,4-5,10,18H2,1-3H3

>  <Ligand InChI Key>  (1) 
ZQVLYQIYBWIADD-UHFFFAOYSA-N

>  <BindingDB MonomerID>  (1) 
50387814

>  <BindingDB Ligand Name>  (1) 
CHEMBL2058375

>  <Target Name>  (1) 
Type-1 angiotensin II receptor

>  <Target Source Organism According to Curator or DataSource>  (1) 
Bos taurus

>  <Ki (nM)>  (1) 


>  <IC50 (nM)>  (1) 
 10.5

>  <Kd (nM)>  (1) 


>  <EC50 (nM)>  (1) 


>  <kon (M-1-s-1)>  (1) 


>  <koff (s-1)>  (1) 


>  <pH>  (1) 


>  <Temp C>  (1) 


>  <Curation/DataSource>  (1) 
ChEMBL

>  <Article DOI>  (1) 
10.1016/j.bmc.2012.06.011

>  <BindingDB Entry DOI>  (1) 
10.7270/Q2G73FS6

>  <PMID>  (1) 
22750010

>  <PubChem AID>  (1) 


>  <Patent Number>  (1) 


>  <Authors>  (1) 
Bai, R; Wei, Z; Liu, J; Xie, W; Yao, H; Wu, X; Jiang, J; Wang, Q; Xu, J

>  <Institution>  (1) 
China Pharmaceutical University

>  <Link to Ligand in BindingDB>  (1) 
http://www.bindingdb.org/bind/chemsearch/marvin/MolStructure.jsp?monomerid=50387814

>  <Link to Ligand-Target Pair in BindingDB>  (1) 
http://www.bindingdb.org/jsp/dbsearch/PrimarySearch_ki.jsp?energyterm=kJ/mole&tag=r21&monomerid=50387814&enzyme=Type-1+angiotensin+II+receptor&column=ki&startPg=0&Increment=50&submit=Search

>  <Ligand HET ID in PDB>  (1) 


>  <PDB ID(s) for Ligand-Target Complex>  (1) 


>  <PubChem CID of Ligand>  (1) 
70690542

>  <PubChem SID of Ligand>  (1) 
160866897

>  <ChEBI ID of Ligand>  (1) 


>  <ChEMBL ID of Ligand>  (1) 
CHEMBL2058375

>  <DrugBank ID of Ligand>  (1) 


>  <IUPHAR_GRAC ID of Ligand>  (1) 


>  <KEGG ID of Ligand>  (1) 


>  <ZINC ID of Ligand>  (1) 
ZINC84690207

>  <Number of Protein Chains in Target (bigger than 1 implies a multichain complex)>  (1) 
1

>  <BindingDB Target Chain Sequence>  (1) 
MILNSSTEDGIKRIQDDCPKAGRHNYIFIMIPTLYSIIFVVGIFGNSLVVIVIYFYMKLKTVASVFLLNLALADLCFLLTLPLWAVYTAMEYRWPFGNYLCKIASASVSFNLYASVFLLTCLSIDRYLAIVHPMKSRLRRTMLVAKVTCIIIWLLAGLASLPTIIHRNVFFIENTNITVCAFHYESQNSTLPVGLGLTKNILGFLFPFLIILTSYTLIWKTLKKAYEIQKNKPRKDDIFKIILAIVLFFFFSWVPHQIFTFMDVLIQLGLIRDCKIEDIVDTAMPITICLAYFNNCLNPLFYGFLGKKFKKYFLQLLKYIPPKAKSHSNLSTKMSTLSYRPSENGNSSTKKPAPCIEVE

>  <PDB ID(s) of Target Chain>  (1) 


>  <UniProt (SwissProt) Recommended Name of Target Chain>  (1) 
Type-1 angiotensin II receptor

>  <UniProt (SwissProt) Entry Name of Target Chain>  (1) 
AGTR1_BOVIN

>  <UniProt (SwissProt) Primary ID of Target Chain>  (1) 
P25104

>  <UniProt (SwissProt) Secondary ID(s) of Target Chain>  (1) 


>  <UniProt (SwissProt) Alternative ID(s) of Target Chain>  (1) 


>  <UniProt (TrEMBL) Submitted Name of Target Chain>  (1) 


>  <UniProt (TrEMBL) Entry Name of Target Chain>  (1) 


>  <UniProt (TrEMBL) Primary ID of Target Chain>  (1) 


>  <UniProt (TrEMBL) Secondary ID(s) of Target Chain>  (1) 


>  <UniProt (TrEMBL) Alternative ID(s) of Target Chain>  (1) 


$$$$
