
     RDKit          2D

 36 39  0  0  0  0  0  0  0  0999 V2000
    4.2292   -4.4667    0.0000 N   0  0  0  0  0  0  0  0  0  0  0  0
    4.4875   -3.6875    0.0000 C   0  0  0  0  0  0  0  0  0  0  0  0
    3.1542   -3.6792    0.0000 N   0  0  0  0  0  0  0  0  0  0  0  0
    3.4042   -4.4667    0.0000 C   0  0  0  0  0  0  0  0  0  0  0  0
    3.8167   -3.0792    0.0000 C   0  0  0  0  0  0  0  0  0  0  0  0
    8.3625   -5.9042    0.0000 C   0  0  0  0  0  0  0  0  0  0  0  0
    7.9500   -5.1917    0.0000 C   0  0  0  0  0  0  0  0  0  0  0  0
    7.9375   -6.6292    0.0000 C   0  0  0  0  0  0  0  0  0  0  0  0
    4.6417   -5.1875    0.0000 C   0  0  0  0  0  0  0  0  0  0  0  0
    7.1167   -5.1917    0.0000 C   0  0  0  0  0  0  0  0  0  0  0  0
    5.2750   -3.4292    0.0000 O   0  0  0  0  0  0  0  0  0  0  0  0
    8.3500   -7.3417    0.0000 O   0  0  0  0  0  0  0  0  0  0  0  0
    6.7042   -5.9125    0.0000 C   0  0  0  0  0  0  0  0  0  0  0  0
    6.7042   -4.4792    0.0000 C   0  0  0  0  0  0  0  0  0  0  0  0
    5.4667   -5.1917    0.0000 C   0  0  0  0  0  0  0  0  0  0  0  0
    7.1042   -6.6167    0.0000 O   0  0  0  0  0  0  0  0  0  0  0  0
    2.9167   -5.1292    0.0000 C   0  0  0  0  0  0  0  0  0  0  0  0
    5.8792   -4.4792    0.0000 C   0  0  0  0  0  0  0  0  0  0  0  0
    5.8792   -5.9125    0.0000 C   0  0  0  0  0  0  0  0  0  0  0  0
    4.3417   -2.4375    0.0000 C   0  0  0  0  0  0  0  0  0  0  0  0
    3.0292   -3.3292    0.0000 C   0  0  0  0  0  0  0  0  0  0  0  0
    9.1917   -5.9042    0.0000 C   0  0  0  0  0  0  0  0  0  0  0  0
    8.3625   -4.4792    0.0000 C   0  0  0  0  0  0  0  0  0  0  0  0
    3.2417   -5.8917    0.0000 C   0  0  0  0  0  0  0  0  0  0  0  0
    2.7500   -6.5542    0.0000 C   0  0  0  0  0  0  0  0  0  0  0  0
    4.4292   -1.6167    0.0000 C   0  0  0  0  0  0  0  0  0  0  0  0
    2.2375   -3.1167    0.0000 C   0  0  0  0  0  0  0  0  0  0  0  0
    9.6042   -5.1917    0.0000 C   0  0  0  0  0  0  0  0  0  0  0  0
    9.1917   -4.4792    0.0000 C   0  0  0  0  0  0  0  0  0  0  0  0
    3.0750   -7.3125    0.0000 C   0  0  0  0  0  0  0  0  0  0  0  0
    1.6792   -2.5167    0.0000 C   0  0  0  0  0  0  0  0  0  0  0  0
    4.0667   -0.8792    0.0000 C   0  0  0  0  0  0  0  0  0  0  0  0
    1.5375   -1.7125    0.0000 C   0  0  0  0  0  0  0  0  0  0  0  0
    1.8542   -0.9542    0.0000 C   0  0  0  0  0  0  0  0  0  0  0  0
    2.5292   -0.4792    0.0000 C   0  0  0  0  0  0  0  0  0  0  0  0
    3.3542   -0.4542    0.0000 C   0  0  0  0  0  0  0  0  0  0  0  0
  2  1  1  0
  3  4  2  0
  4  1  1  0
  5  2  1  0
  6  7  2  0
  7 10  1  0
  8  6  1  0
  9  1  1  0
 10 13  2  0
 11  2  2  0
 12  8  2  0
 13 19  1  0
 14 18  2  0
 15  9  1  0
 16  8  1  0
 17  4  1  0
 18 15  1  0
 19 15  2  0
 20  5  1  0
 21  5  1  0
 22  6  1  0
 23  7  1  0
 24 17  1  0
 25 24  1  0
 26 20  1  0
 27 21  1  0
 28 29  1  0
 29 23  2  0
 30 25  1  0
 31 27  1  0
 32 26  1  0
 33 31  1  0
 34 33  1  0
 35 36  1  0
 36 32  1  0
  3  5  1  0
 14 10  1  0
 34 35  1  0
 22 28  2  0
M  END
>  <From>  (1) 
www.bindingDB.org

>  <BindingDB Reactant_set_id>  (1) 
50067206

>  <Ligand InChI>  (1) 
InChI=1S/C31H40N2O3/c1-2-3-16-28-32-31(21-12-8-6-4-5-7-9-13-22-31)30(36)33(28)23-24-17-19-25(20-18-24)26-14-10-11-15-27(26)29(34)35/h10-11,14-15,17-20H,2-9,12-13,16,21-23H2,1H3,(H,34,35)

>  <Ligand InChI Key>  (1) 
WOECBIVPSJRGFG-UHFFFAOYSA-N

>  <BindingDB MonomerID>  (1) 
50042221

>  <BindingDB Ligand Name>  (1) 
4'-(2-Butyl-4-oxo-1,3-diaza-spiro[4.10]pentadec-1-en-3-ylmethyl)-biphenyl-2-carboxylic acid::CHEMBL324245

>  <Target Name>  (1) 
Type-1 angiotensin II receptor B

>  <Target Source Organism According to Curator or DataSource>  (1) 
Rattus

>  <Ki (nM)>  (1) 


>  <IC50 (nM)>  (1) 
 350

>  <Kd (nM)>  (1) 


>  <EC50 (nM)>  (1) 


>  <kon (M-1-s-1)>  (1) 


>  <koff (s-1)>  (1) 


>  <pH>  (1) 


>  <Temp C>  (1) 


>  <Curation/DataSource>  (1) 
ChEMBL

>  <Article DOI>  (1) 
10.1021/jm00074a018

>  <BindingDB Entry DOI>  (1) 
10.7270/Q22Z14M0

>  <PMID>  (1) 
8230127

>  <PubChem AID>  (1) 


>  <Patent Number>  (1) 


>  <Authors>  (1) 
Bernhart, CA; Perreaut, PM; Ferrari, BP; Muneaux, YA; Assens, JL; Clement, J; Haudricourt, F; Muneaux, CF; Taillades, JE; Vignal, MA

>  <Institution>  (1) 
Sanofi Recherche

>  <Link to Ligand in BindingDB>  (1) 
http://www.bindingdb.org/bind/chemsearch/marvin/MolStructure.jsp?monomerid=50042221

>  <Link to Ligand-Target Pair in BindingDB>  (1) 
http://www.bindingdb.org/jsp/dbsearch/PrimarySearch_ki.jsp?energyterm=kJ/mole&tag=r21&monomerid=50042221&enzyme=Type-1+angiotensin+II+receptor+B&column=ki&startPg=0&Increment=50&submit=Search

>  <Ligand HET ID in PDB>  (1) 


>  <PDB ID(s) for Ligand-Target Complex>  (1) 


>  <PubChem CID of Ligand>  (1) 
44342045

>  <PubChem SID of Ligand>  (1) 
103973829

>  <ChEBI ID of Ligand>  (1) 


>  <ChEMBL ID of Ligand>  (1) 
CHEMBL324245

>  <DrugBank ID of Ligand>  (1) 


>  <IUPHAR_GRAC ID of Ligand>  (1) 


>  <KEGG ID of Ligand>  (1) 


>  <ZINC ID of Ligand>  (1) 
ZINC27079694

>  <Number of Protein Chains in Target (bigger than 1 implies a multichain complex)>  (1) 
1

>  <BindingDB Target Chain Sequence>  (1) 
MTLNSSTEDGIKRIQDDCPKAGRHNYIFVMIPTLYSIIFVVGIFGNSLVVIVIYFYMKLKTVASVFLLNLALADLCFLLTLPLWAVYTAMEYRWPFGNHLCKIASASVSFNLYASVFLLTCLSIDRYLAIVHPMKSRLRRTMLVAKVTCIIIWLMAGLASLPAVIYRNVYFIENTNITVCAFHYESQNSTLPIGLGLTKNILGFVFPFLIILTSYTLIWKALKKAYKIQKNTPRNDDIFRIIMAIVLFFFFSWVPHQIFTFLDVLIQLGIIRDCEIADIVDTAMPITICIAYFNNCLNPLFYGFLGKKFKKYFLQLLKYIPPTAKSHAGLSTKMSTLSYRPSDNMSSSAKKSASFFEVE

>  <PDB ID(s) of Target Chain>  (1) 


>  <UniProt (SwissProt) Recommended Name of Target Chain>  (1) 
Type-1 angiotensin II receptor B

>  <UniProt (SwissProt) Entry Name of Target Chain>  (1) 
AGTRB_RAT

>  <UniProt (SwissProt) Primary ID of Target Chain>  (1) 
P29089

>  <UniProt (SwissProt) Secondary ID(s) of Target Chain>  (1) 


>  <UniProt (SwissProt) Alternative ID(s) of Target Chain>  (1) 


>  <UniProt (TrEMBL) Submitted Name of Target Chain>  (1) 


>  <UniProt (TrEMBL) Entry Name of Target Chain>  (1) 


>  <UniProt (TrEMBL) Primary ID of Target Chain>  (1) 


>  <UniProt (TrEMBL) Secondary ID(s) of Target Chain>  (1) 


>  <UniProt (TrEMBL) Alternative ID(s) of Target Chain>  (1) 


$$$$
