
     RDKit          2D

 41 45  0  0  0  0  0  0  0  0999 V2000
   12.4861  -18.4375    0.0000 C   0  0  0  0  0  0  0  0  0  0  0  0
   12.4849  -19.2648    0.0000 C   0  0  0  0  0  0  0  0  0  0  0  0
   13.1997  -19.6777    0.0000 C   0  0  0  0  0  0  0  0  0  0  0  0
   13.9162  -19.2644    0.0000 C   0  0  0  0  0  0  0  0  0  0  0  0
   13.9133  -18.4338    0.0000 C   0  0  0  0  0  0  0  0  0  0  0  0
   13.1979  -18.0247    0.0000 C   0  0  0  0  0  0  0  0  0  0  0  0
   14.6262  -18.0186    0.0000 S   0  0  0  0  0  0  0  0  0  0  0  0
   15.3422  -18.4284    0.0000 N   0  0  0  0  0  0  0  0  0  0  0  0
   14.2083  -17.3000    0.0000 O   0  0  0  0  0  0  0  0  0  0  0  0
   15.0333  -17.3000    0.0000 O   0  0  0  0  0  0  0  0  0  0  0  0
   16.0552  -18.0132    0.0000 C   0  0  0  0  0  0  0  0  0  0  0  0
   16.8349  -18.2794    0.0000 C   0  0  0  0  0  0  0  0  0  0  0  0
   17.3267  -17.6170    0.0000 C   0  0  0  0  0  0  0  0  0  0  0  0
   16.8487  -16.9445    0.0000 N   0  0  0  0  0  0  0  0  0  0  0  0
   16.0615  -17.1915    0.0000 O   0  0  0  0  0  0  0  0  0  0  0  0
   18.1516  -17.6255    0.0000 C   0  0  0  0  0  0  0  0  0  0  0  0
   17.0799  -19.0672    0.0000 C   0  0  0  0  0  0  0  0  0  0  0  0
   13.1926  -17.2026    0.0000 C   0  0  0  0  0  0  0  0  0  0  0  0
   13.9075  -16.7885    0.0000 C   0  0  0  0  0  0  0  0  0  0  0  0
   13.9054  -15.9643    0.0000 C   0  0  0  0  0  0  0  0  0  0  0  0
   13.1891  -15.5531    0.0000 C   0  0  0  0  0  0  0  0  0  0  0  0
   12.4736  -15.9722    0.0000 C   0  0  0  0  0  0  0  0  0  0  0  0
   12.4792  -16.7950    0.0000 C   0  0  0  0  0  0  0  0  0  0  0  0
   13.1856  -14.7281    0.0000 C   0  0  0  0  0  0  0  0  0  0  0  0
   12.4691  -14.3190    0.0000 N   0  0  0  0  0  0  0  0  0  0  0  0
   12.4603  -13.4970    0.0000 C   0  0  0  0  0  0  0  0  0  0  0  0
   11.6723  -13.2527    0.0000 N   0  0  0  0  0  0  0  0  0  0  0  0
   11.6905  -14.5874    0.0000 C   0  0  0  0  0  0  0  0  0  0  0  0
   11.1956  -13.9239    0.0000 C   0  0  0  0  0  0  0  0  0  0  0  0
   10.3755  -14.0216    0.0000 C   0  0  0  0  0  0  0  0  0  0  0  0
   10.0493  -14.7820    0.0000 C   0  0  0  0  0  0  0  0  0  0  0  0
   10.5493  -15.4456    0.0000 C   0  0  0  0  0  0  0  0  0  0  0  0
   11.3676  -15.3447    0.0000 C   0  0  0  0  0  0  0  0  0  0  0  0
   13.1218  -13.0040    0.0000 C   0  0  0  0  0  0  0  0  0  0  0  0
   13.8795  -13.3304    0.0000 C   0  0  0  0  0  0  0  0  0  0  0  0
   14.5410  -12.8374    0.0000 C   0  0  0  0  0  0  0  0  0  0  0  0
   15.2987  -13.1637    0.0000 C   0  0  0  0  0  0  0  0  0  0  0  0
   10.2271  -16.2051    0.0000 C   0  0  0  0  0  0  0  0  0  0  0  0
   10.7238  -16.8639    0.0000 F   0  0  0  0  0  0  0  0  0  0  0  0
    9.4083  -16.3059    0.0000 F   0  0  0  0  0  0  0  0  0  0  0  0
   10.0083  -17.0000    0.0000 F   0  0  0  0  0  0  0  0  0  0  0  0
  7 10  2  0
 20 21  2  0
  2  3  2  0
 21 22  1  0
  8 11  1  0
 22 23  2  0
 23 18  1  0
  6 18  1  0
 11 12  2  0
 21 24  1  0
  5  6  1  0
 24 25  1  0
 25 26  1  0
  6  1  2  0
  1  2  1  0
 26 27  2  0
 27 29  1  0
 28 25  1  0
  5  7  1  0
 12 13  1  0
 28 29  2  0
 13 14  2  0
 29 30  1  0
 14 15  1  0
 30 31  2  0
 15 11  1  0
 31 32  1  0
  3  4  1  0
 32 33  2  0
 33 28  1  0
 13 16  1  0
 26 34  1  0
  7  8  1  0
 34 35  1  0
 12 17  1  0
 35 36  1  0
 36 37  1  0
  7  9  2  0
 32 38  1  0
 18 19  2  0
 38 39  1  0
  4  5  2  0
 38 40  1  0
 19 20  1  0
 38 41  1  0
M  END
>  <From>  (1) 
www.bindingDB.org

>  <BindingDB Reactant_set_id>  (1) 
50945422

>  <Ligand InChI>  (1) 
InChI=1S/C30H29F3N4O3S/c1-4-5-10-28-34-25-16-15-23(30(31,32)33)17-26(25)37(28)18-21-11-13-22(14-12-21)24-8-6-7-9-27(24)41(38,39)36-29-19(2)20(3)35-40-29/h6-9,11-17,36H,4-5,10,18H2,1-3H3

>  <Ligand InChI Key>  (1) 
BZQHFABDJBRUMK-UHFFFAOYSA-N

>  <BindingDB MonomerID>  (1) 
50387815

>  <BindingDB Ligand Name>  (1) 
CHEMBL2058376

>  <Target Name>  (1) 
Type-1 angiotensin II receptor

>  <Target Source Organism According to Curator or DataSource>  (1) 
Bos taurus

>  <Ki (nM)>  (1) 


>  <IC50 (nM)>  (1) 
 11

>  <Kd (nM)>  (1) 


>  <EC50 (nM)>  (1) 


>  <kon (M-1-s-1)>  (1) 


>  <koff (s-1)>  (1) 


>  <pH>  (1) 


>  <Temp C>  (1) 


>  <Curation/DataSource>  (1) 
ChEMBL

>  <Article DOI>  (1) 
10.1016/j.bmc.2012.06.011

>  <BindingDB Entry DOI>  (1) 
10.7270/Q2G73FS6

>  <PMID>  (1) 
22750010

>  <PubChem AID>  (1) 


>  <Patent Number>  (1) 


>  <Authors>  (1) 
Bai, R; Wei, Z; Liu, J; Xie, W; Yao, H; Wu, X; Jiang, J; Wang, Q; Xu, J

>  <Institution>  (1) 
China Pharmaceutical University

>  <Link to Ligand in BindingDB>  (1) 
http://www.bindingdb.org/bind/chemsearch/marvin/MolStructure.jsp?monomerid=50387815

>  <Link to Ligand-Target Pair in BindingDB>  (1) 
http://www.bindingdb.org/jsp/dbsearch/PrimarySearch_ki.jsp?energyterm=kJ/mole&tag=r21&monomerid=50387815&enzyme=Type-1+angiotensin+II+receptor&column=ki&startPg=0&Increment=50&submit=Search

>  <Ligand HET ID in PDB>  (1) 


>  <PDB ID(s) for Ligand-Target Complex>  (1) 


>  <PubChem CID of Ligand>  (1) 
70696781

>  <PubChem SID of Ligand>  (1) 
160866898

>  <ChEBI ID of Ligand>  (1) 


>  <ChEMBL ID of Ligand>  (1) 
CHEMBL2058376

>  <DrugBank ID of Ligand>  (1) 


>  <IUPHAR_GRAC ID of Ligand>  (1) 


>  <KEGG ID of Ligand>  (1) 


>  <ZINC ID of Ligand>  (1) 
ZINC84690208

>  <Number of Protein Chains in Target (bigger than 1 implies a multichain complex)>  (1) 
1

>  <BindingDB Target Chain Sequence>  (1) 
MILNSSTEDGIKRIQDDCPKAGRHNYIFIMIPTLYSIIFVVGIFGNSLVVIVIYFYMKLKTVASVFLLNLALADLCFLLTLPLWAVYTAMEYRWPFGNYLCKIASASVSFNLYASVFLLTCLSIDRYLAIVHPMKSRLRRTMLVAKVTCIIIWLLAGLASLPTIIHRNVFFIENTNITVCAFHYESQNSTLPVGLGLTKNILGFLFPFLIILTSYTLIWKTLKKAYEIQKNKPRKDDIFKIILAIVLFFFFSWVPHQIFTFMDVLIQLGLIRDCKIEDIVDTAMPITICLAYFNNCLNPLFYGFLGKKFKKYFLQLLKYIPPKAKSHSNLSTKMSTLSYRPSENGNSSTKKPAPCIEVE

>  <PDB ID(s) of Target Chain>  (1) 


>  <UniProt (SwissProt) Recommended Name of Target Chain>  (1) 
Type-1 angiotensin II receptor

>  <UniProt (SwissProt) Entry Name of Target Chain>  (1) 
AGTR1_BOVIN

>  <UniProt (SwissProt) Primary ID of Target Chain>  (1) 
P25104

>  <UniProt (SwissProt) Secondary ID(s) of Target Chain>  (1) 


>  <UniProt (SwissProt) Alternative ID(s) of Target Chain>  (1) 


>  <UniProt (TrEMBL) Submitted Name of Target Chain>  (1) 


>  <UniProt (TrEMBL) Entry Name of Target Chain>  (1) 


>  <UniProt (TrEMBL) Primary ID of Target Chain>  (1) 


>  <UniProt (TrEMBL) Secondary ID(s) of Target Chain>  (1) 


>  <UniProt (TrEMBL) Alternative ID(s) of Target Chain>  (1) 


$$$$
