
     RDKit          2D

 33 37  0  0  0  0  0  0  0  0999 V2000
    4.1925   -4.9176    0.0000 N   0  0  0  0  0  0  0  0  0  0  0  0
    3.4799   -5.3260    0.0000 C   0  0  0  0  0  0  0  0  0  0  0  0
    4.1925   -4.0925    0.0000 C   0  0  0  0  0  0  0  0  0  0  0  0
    8.4808   -4.9176    0.0000 C   0  0  0  0  0  0  0  0  0  0  0  0
    2.7755   -4.9176    0.0000 N   0  0  0  0  0  0  0  0  0  0  0  0
    9.1559   -5.4052    0.0000 N   0  0  0  0  0  0  0  0  0  0  0  0
    8.9017   -6.1929    0.0000 N   0  0  0  0  0  0  0  0  0  0  0  0
    7.8182   -5.4052    0.0000 N   0  0  0  0  0  0  0  0  0  0  0  0
    8.0765   -6.1929    0.0000 N   0  0  0  0  0  0  0  0  0  0  0  0
    3.4799   -3.6757    0.0000 C   0  0  0  0  0  0  0  0  0  0  0  0
    8.4808   -4.0925    0.0000 C   0  0  0  0  0  0  0  0  0  0  0  0
    2.7755   -4.0925    0.0000 C   0  0  0  0  0  0  0  0  0  0  0  0
    7.7682   -3.6799    0.0000 C   0  0  0  0  0  0  0  0  0  0  0  0
    4.9134   -5.3302    0.0000 C   0  0  0  0  0  0  0  0  0  0  0  0
    7.0555   -4.0925    0.0000 C   0  0  0  0  0  0  0  0  0  0  0  0
    4.9134   -3.6799    0.0000 O   0  0  0  0  0  0  0  0  0  0  0  0
    6.3387   -3.6799    0.0000 C   0  0  0  0  0  0  0  0  0  0  0  0
    7.0555   -4.9176    0.0000 C   0  0  0  0  0  0  0  0  0  0  0  0
    5.6261   -4.9176    0.0000 C   0  0  0  0  0  0  0  0  0  0  0  0
    3.4799   -6.1512    0.0000 C   0  0  0  0  0  0  0  0  0  0  0  0
    5.6261   -4.0925    0.0000 C   0  0  0  0  0  0  0  0  0  0  0  0
    6.3387   -5.3302    0.0000 C   0  0  0  0  0  0  0  0  0  0  0  0
    9.1934   -3.6882    0.0000 C   0  0  0  0  0  0  0  0  0  0  0  0
    7.7682   -2.8630    0.0000 C   0  0  0  0  0  0  0  0  0  0  0  0
    2.0171   -4.4300    0.0000 C   0  0  0  0  0  0  0  0  0  0  0  0
    2.6797   -3.2673    0.0000 C   0  0  0  0  0  0  0  0  0  0  0  0
    2.7672   -6.5637    0.0000 C   0  0  0  0  0  0  0  0  0  0  0  0
    2.7672   -7.3889    0.0000 C   0  0  0  0  0  0  0  0  0  0  0  0
    9.1934   -2.8547    0.0000 C   0  0  0  0  0  0  0  0  0  0  0  0
    8.4808   -2.4422    0.0000 C   0  0  0  0  0  0  0  0  0  0  0  0
    1.8754   -3.1006    0.0000 C   0  0  0  0  0  0  0  0  0  0  0  0
    1.4670   -3.8174    0.0000 C   0  0  0  0  0  0  0  0  0  0  0  0
    2.0546   -7.8015    0.0000 C   0  0  0  0  0  0  0  0  0  0  0  0
  2  1  1  0
  3  1  1  0
  4 11  1  0
  5  2  2  0
  6  4  1  0
  7  6  1  0
  8  4  2  0
  9  8  1  0
 10  3  1  0
 11 13  1  0
 12 10  1  0
 13 15  1  0
 14  1  1  0
 15 18  2  0
 16  3  2  0
 17 21  2  0
 18 22  1  0
 19 14  1  0
 20  2  1  0
 21 19  1  0
 22 19  2  0
 23 11  2  0
 24 13  2  0
 25 12  1  0
 26 12  1  0
 27 20  1  0
 28 27  1  0
 29 30  2  0
 30 24  1  0
 31 26  1  0
 32 25  1  0
 33 28  1  0
  5 12  1  0
 15 17  1  0
 32 31  1  0
 29 23  1  0
  7  9  2  0
M  END
>  <From>  (1) 
www.bindingDB.org

>  <BindingDB Reactant_set_id>  (1) 
50467352

>  <Ligand InChI>  (1) 
InChI=1S/C26H30N6O/c1-2-3-10-23-27-26(15-6-7-16-26)17-24(33)32(23)18-19-11-13-20(14-12-19)21-8-4-5-9-22(21)25-28-30-31-29-25/h4-5,8-9,11-14H,2-3,6-7,10,15-18H2,1H3,(H,28,29,30,31)

>  <Ligand InChI Key>  (1) 
QQXUWSWJFJDVQE-UHFFFAOYSA-N

>  <BindingDB MonomerID>  (1) 
50282260

>  <BindingDB Ligand Name>  (1) 
7-Butyl-8-[2'-(2H-tetrazol-5-yl)-biphenyl-4-ylmethyl]-6,8-diaza-spiro[4.5]dec-6-en-9-one::CHEMBL42200

>  <Target Name>  (1) 
Type-1 angiotensin II receptor B

>  <Target Source Organism According to Curator or DataSource>  (1) 
Rattus

>  <Ki (nM)>  (1) 


>  <IC50 (nM)>  (1) 
 1

>  <Kd (nM)>  (1) 


>  <EC50 (nM)>  (1) 


>  <kon (M-1-s-1)>  (1) 


>  <koff (s-1)>  (1) 


>  <pH>  (1) 


>  <Temp C>  (1) 


>  <Curation/DataSource>  (1) 
ChEMBL

>  <Article DOI>  (1) 
10.1016/S0960-894X(01)81139-2

>  <BindingDB Entry DOI>  (1) 
10.7270/Q2QN66QV

>  <PMID>  (1) 


>  <PubChem AID>  (1) 


>  <Patent Number>  (1) 


>  <Authors>  (1) 
Bernhart, CA; Hundricourt, FB; Assens, JL; Gougat, J; Lacour, C; Roccon, A; Cazaubon, C; Breli&#xe8;re, JC; Fur, GL; Nisato, D

>  <Institution>  (1) 
TBA

>  <Link to Ligand in BindingDB>  (1) 
http://www.bindingdb.org/bind/chemsearch/marvin/MolStructure.jsp?monomerid=50282260

>  <Link to Ligand-Target Pair in BindingDB>  (1) 
http://www.bindingdb.org/jsp/dbsearch/PrimarySearch_ki.jsp?energyterm=kJ/mole&tag=r21&monomerid=50282260&enzyme=Type-1+angiotensin+II+receptor+B&column=ki&startPg=0&Increment=50&submit=Search

>  <Ligand HET ID in PDB>  (1) 


>  <PDB ID(s) for Ligand-Target Complex>  (1) 


>  <PubChem CID of Ligand>  (1) 
44289008

>  <PubChem SID of Ligand>  (1) 
104123934

>  <ChEBI ID of Ligand>  (1) 


>  <ChEMBL ID of Ligand>  (1) 
CHEMBL42200

>  <DrugBank ID of Ligand>  (1) 


>  <IUPHAR_GRAC ID of Ligand>  (1) 


>  <KEGG ID of Ligand>  (1) 


>  <ZINC ID of Ligand>  (1) 
ZINC29393821

>  <Number of Protein Chains in Target (bigger than 1 implies a multichain complex)>  (1) 
1

>  <BindingDB Target Chain Sequence>  (1) 
MTLNSSTEDGIKRIQDDCPKAGRHNYIFVMIPTLYSIIFVVGIFGNSLVVIVIYFYMKLKTVASVFLLNLALADLCFLLTLPLWAVYTAMEYRWPFGNHLCKIASASVSFNLYASVFLLTCLSIDRYLAIVHPMKSRLRRTMLVAKVTCIIIWLMAGLASLPAVIYRNVYFIENTNITVCAFHYESQNSTLPIGLGLTKNILGFVFPFLIILTSYTLIWKALKKAYKIQKNTPRNDDIFRIIMAIVLFFFFSWVPHQIFTFLDVLIQLGIIRDCEIADIVDTAMPITICIAYFNNCLNPLFYGFLGKKFKKYFLQLLKYIPPTAKSHAGLSTKMSTLSYRPSDNMSSSAKKSASFFEVE

>  <PDB ID(s) of Target Chain>  (1) 


>  <UniProt (SwissProt) Recommended Name of Target Chain>  (1) 
Type-1 angiotensin II receptor B

>  <UniProt (SwissProt) Entry Name of Target Chain>  (1) 
AGTRB_RAT

>  <UniProt (SwissProt) Primary ID of Target Chain>  (1) 
P29089

>  <UniProt (SwissProt) Secondary ID(s) of Target Chain>  (1) 


>  <UniProt (SwissProt) Alternative ID(s) of Target Chain>  (1) 


>  <UniProt (TrEMBL) Submitted Name of Target Chain>  (1) 


>  <UniProt (TrEMBL) Entry Name of Target Chain>  (1) 


>  <UniProt (TrEMBL) Primary ID of Target Chain>  (1) 


>  <UniProt (TrEMBL) Secondary ID(s) of Target Chain>  (1) 


>  <UniProt (TrEMBL) Alternative ID(s) of Target Chain>  (1) 


$$$$
