 
     RDKit          2D

 18 19  0  0  0  0  0  0  0  0999 V2000
   -3.2117    0.9643    0.0000 C   0  0  0  0  0  0  0  0  0  0  0  0
   -3.2237    0.1394    0.0000 C   0  0  0  0  0  0  0  0  0  0  0  0
   -2.5153   -0.2834    0.0000 C   0  0  0  0  0  0  0  0  0  0  0  0
   -1.7949    0.1186    0.0000 C   0  0  0  0  0  0  0  0  0  0  0  0
   -1.0142   -0.1477    0.0000 N   0  0  0  0  0  0  0  0  0  0  0  0
   -0.7707   -0.9359    0.0000 S   0  0  0  0  0  0  0  0  0  0  0  0
   -1.3314   -1.5409    0.0000 C   0  0  0  0  0  0  0  0  0  0  0  0
   -0.5195    0.5125    0.0000 C   0  0  0  0  0  0  0  0  0  0  0  0
    0.3053    0.5004    0.0000 C   0  0  0  0  0  0  0  0  0  0  0  0
   -0.9947    1.1869    0.0000 C   0  0  0  0  0  0  0  0  0  0  0  0
   -0.7282    1.9677    0.0000 C   0  0  0  0  0  0  0  0  0  0  0  0
    0.0810    2.1275    0.0000 O   0  0  0  0  0  0  0  0  0  0  0  0
   -1.2712    2.5888    0.0000 O   0  0  0  0  0  0  0  0  0  0  0  0
   -1.7829    0.9435    0.0000 C   0  0  0  0  0  0  0  0  0  0  0  0
   -2.4912    1.3663    0.0000 C   0  0  0  0  0  0  0  0  0  0  0  0
    0.7282    1.2090    0.0000 O   0  0  0  0  0  0  0  0  0  0  0  0
    0.0264   -0.7223    0.0000 O   0  0  0  0  0  0  0  0  0  0  0  0
   -0.3581   -1.6506    0.0000 O   0  0  0  0  0  0  0  0  0  0  0  0
  1  2  2  0
  2  3  1  0
  3  4  2  0
  4  5  1  0
  5  6  1  0
  6  7  1  0
  8  5  1  0
  8  9  1  0
 10  8  2  0
 10 11  1  0
 11 12  1  0
 11 13  2  0
 14 10  1  0
  4 14  1  0
 14 15  2  0
 15  1  1  0
  9 16  1  0
  6 17  2  0
  6 18  2  0
M  END
>  <From>  (1) 
www.bindingDB.org

>  <BindingDB Reactant_set_id>  (1) 
51523978

>  <Ligand InChI>  (1) 
InChI=1S/C11H11NO5S/c1-18(16,17)12-8-5-3-2-4-7(8)10(11(14)15)9(12)6-13/h2-5,13H,6H2,1H3,(H,14,15)

>  <Ligand InChI Key>  (1) 
WTCBASIOGKSKHR-UHFFFAOYSA-N

>  <BindingDB MonomerID>  (1) 
50613296

>  <BindingDB Ligand Name>  (1) 
CHEMBL5289070

>  <Target Name>  (1) 
Type-1 angiotensin II receptor

>  <Target Source Organism According to Curator or DataSource>  (1) 
Homo sapiens

>  <Ki (nM)>  (1) 


>  <IC50 (nM)>  (1) 
 27

>  <Kd (nM)>  (1) 


>  <EC50 (nM)>  (1) 


>  <kon (M-1-s-1)>  (1) 


>  <koff (s-1)>  (1) 


>  <pH>  (1) 


>  <Temp C>  (1) 


>  <Curation/DataSource>  (1) 
ChEMBL

>  <Article DOI>  (1) 


>  <BindingDB Entry DOI>  (1) 
10.7270/Q2C82FJ3

>  <PMID>  (1) 
37236375

>  <PubChem AID>  (1) 


>  <Patent Number>  (1) 


>  <Authors>  (1) 
n/a

>  <Institution>  (1) 
n/a

>  <Link to Ligand in BindingDB>  (1) 
http://www.bindingdb.org/bind/chemsearch/marvin/MolStructure.jsp?monomerid=50613296

>  <Link to Ligand-Target Pair in BindingDB>  (1) 
http://www.bindingdb.org/jsp/dbsearch/PrimarySearch_ki.jsp?energyterm=kJ/mole&tag=r21&monomerid=50613296&enzyme=Type-1+angiotensin+II+receptor&column=ki&startPg=0&Increment=50&submit=Search

>  <Ligand HET ID in PDB>  (1) 


>  <PDB ID(s) for Ligand-Target Complex>  (1) 


>  <PubChem CID of Ligand>  (1) 
171351414

>  <PubChem SID of Ligand>  (1) 
494503044

>  <ChEBI ID of Ligand>  (1) 


>  <ChEMBL ID of Ligand>  (1) 


>  <DrugBank ID of Ligand>  (1) 


>  <IUPHAR_GRAC ID of Ligand>  (1) 


>  <KEGG ID of Ligand>  (1) 


>  <ZINC ID of Ligand>  (1) 


>  <Number of Protein Chains in Target (bigger than 1 implies a multichain complex)>  (1) 
1

>  <BindingDB Target Chain Sequence>  (1) 
MILNSSTEDGIKRIQDDCPKAGRHNYIFVMIPTLYSIIFVVGIFGNSLVVIVIYFYMKLKTVASVFLLNLALADLCFLLTLPLWAVYTAMEYRWPFGNYLCKIASASVSFNLYASVFLLTCLSIDRYLAIVHPMKSRLRRTMLVAKVTCIIIWLLAGLASLPAIIHRNVFFIENTNITVCAFHYESQNSTLPIGLGLTKNILGFLFPFLIILTSYTLIWKALKKAYEIQKNKPRNDDIFKIIMAIVLFFFFSWIPHQIFTFLDVLIQLGIIRDCRIADIVDTAMPITICIAYFNNCLNPLFYGFLGKKFKRYFLQLLKYIPPKAKSHSNLSTKMSTLSYRPSDNVSSSTKKPAPCFEVE

>  <PDB ID(s) of Target Chain>  (1) 
6DO1,6OS0,6OS1,6OS2

>  <UniProt (SwissProt) Recommended Name of Target Chain>  (1) 
Type-1 angiotensin II receptor

>  <UniProt (SwissProt) Entry Name of Target Chain>  (1) 
AGTR1_HUMAN

>  <UniProt (SwissProt) Primary ID of Target Chain>  (1) 
P30556

>  <UniProt (SwissProt) Secondary ID(s) of Target Chain>  (1) 
Q13725 Q8TBK4

>  <UniProt (SwissProt) Alternative ID(s) of Target Chain>  (1) 


>  <UniProt (TrEMBL) Submitted Name of Target Chain>  (1) 


>  <UniProt (TrEMBL) Entry Name of Target Chain>  (1) 


>  <UniProt (TrEMBL) Primary ID of Target Chain>  (1) 


>  <UniProt (TrEMBL) Secondary ID(s) of Target Chain>  (1) 


>  <UniProt (TrEMBL) Alternative ID(s) of Target Chain>  (1) 


$$$$
