
     RDKit          2D

 30 33  0  0  0  0  0  0  0  0999 V2000
    1.5297    0.3689    0.0000 N   0  0  0  0  0  0  0  0  0  0  0  0
    1.5297   -1.2852    0.0000 C   0  0  0  0  0  0  0  0  0  0  0  0
    3.8720   -5.9323    0.0000 C   0  0  0  0  0  0  0  0  0  0  0  0
    3.0760   -5.7126    0.0000 C   0  0  0  0  0  0  0  0  0  0  0  0
    2.2428   -0.8747    0.0000 C   0  0  0  0  0  0  0  0  0  0  0  0
    4.4565   -5.3478    0.0000 C   0  0  0  0  0  0  0  0  0  0  0  0
    2.2428   -0.0497    0.0000 C   0  0  0  0  0  0  0  0  0  0  0  0
    0.8250   -0.8747    0.0000 C   0  0  0  0  0  0  0  0  0  0  0  0
    0.8250   -0.0497    0.0000 C   0  0  0  0  0  0  0  0  0  0  0  0
    2.8729   -4.9167    0.0000 C   0  0  0  0  0  0  0  0  0  0  0  0
    1.5297   -2.1142    0.0000 O   0  0  0  0  0  0  0  0  0  0  0  0
    4.2533   -4.5436    0.0000 O   0  0  0  0  0  0  0  0  0  0  0  0
    2.0769   -4.6928    0.0000 C   0  0  0  0  0  0  0  0  0  0  0  0
    3.4574   -4.3321    0.0000 C   0  0  0  0  0  0  0  0  0  0  0  0
    5.2607   -5.5592    0.0000 O   0  0  0  0  0  0  0  0  0  0  0  0
    2.2428   -2.5288    0.0000 C   0  0  0  0  0  0  0  0  0  0  0  0
    2.4625   -3.3330    0.0000 C   0  0  0  0  0  0  0  0  0  0  0  0
    3.2460   -3.5445    0.0000 C   0  0  0  0  0  0  0  0  0  0  0  0
    1.8697   -3.9051    0.0000 C   0  0  0  0  0  0  0  0  0  0  0  0
    4.0958   -6.7324    0.0000 C   0  0  0  0  0  0  0  0  0  0  0  0
    2.4915   -6.2971    0.0000 C   0  0  0  0  0  0  0  0  0  0  0  0
    2.9517   -1.2852    0.0000 C   0  0  0  0  0  0  0  0  0  0  0  0
    2.9599    0.3689    0.0000 C   0  0  0  0  0  0  0  0  0  0  0  0
    0.0995    0.3689    0.0000 C   0  0  0  0  0  0  0  0  0  0  0  0
    0.0995    1.1897    0.0000 C   0  0  0  0  0  0  0  0  0  0  0  0
    3.5071   -7.3170    0.0000 C   0  0  0  0  0  0  0  0  0  0  0  0
    2.7029   -7.0931    0.0000 C   0  0  0  0  0  0  0  0  0  0  0  0
    3.6606   -0.8872    0.0000 C   0  0  0  0  0  0  0  0  0  0  0  0
    3.6730   -0.0622    0.0000 C   0  0  0  0  0  0  0  0  0  0  0  0
   -0.6094    1.6043    0.0000 C   0  0  0  0  0  0  0  0  0  0  0  0
  2  8  1  0
  3  4  2  0
  4 10  1  0
  5  7  1  0
  6  3  1  0
  7  1  2  0
  8  9  2  0
  9  1  1  0
 10 13  2  0
 11  2  1  0
 12  6  2  0
 13 19  1  0
 14 18  2  0
 15  6  1  0
 16 11  1  0
 17 16  1  0
 18 17  1  0
 19 17  2  0
 20  3  1  0
 21  4  1  0
 22  5  1  0
 23  7  1  0
 24  9  1  0
 25 24  1  0
 26 27  1  0
 27 21  2  0
 28 29  1  0
 29 23  2  0
 30 25  1  0
  5  2  2  0
 28 22  2  0
 14 10  1  0
 26 20  2  0
M  END
>  <From>  (1) 
www.bindingDB.org

>  <BindingDB Reactant_set_id>  (1) 
50005372

>  <Ligand InChI>  (1) 
InChI=1S/C26H23NO3/c1-2-7-20-16-25(23-10-5-6-11-24(23)27-20)30-17-18-12-14-19(15-13-18)21-8-3-4-9-22(21)26(28)29/h3-6,8-16H,2,7,17H2,1H3,(H,28,29)

>  <Ligand InChI Key>  (1) 
NOBNOIVDXOQHJK-UHFFFAOYSA-N

>  <BindingDB MonomerID>  (1) 
50003393

>  <BindingDB Ligand Name>  (1) 
4'-(2-Propyl-quinolin-4-yloxymethyl)-biphenyl-2-carboxylic acid::CHEMBL338048

>  <Target Name>  (1) 
Type-1 angiotensin II receptor

>  <Target Source Organism According to Curator or DataSource>  (1) 
Cavia porcellus

>  <Ki (nM)>  (1) 


>  <IC50 (nM)>  (1) 
 600

>  <Kd (nM)>  (1) 


>  <EC50 (nM)>  (1) 


>  <kon (M-1-s-1)>  (1) 


>  <koff (s-1)>  (1) 


>  <pH>  (1) 


>  <Temp C>  (1) 


>  <Curation/DataSource>  (1) 
ChEMBL

>  <Article DOI>  (1) 
10.1021/jm00100a007

>  <BindingDB Entry DOI>  (1) 
10.7270/Q2G44P8Q

>  <PMID>  (1) 
1433210

>  <PubChem AID>  (1) 


>  <Patent Number>  (1) 


>  <Authors>  (1) 
Bradbury, RH; Allott, CP; Dennis, M; Fisher, E; Major, JS; Masek, BB; Oldham, AA; Pearce, RJ; Rankine, N; Revill, JM

>  <Institution>  (1) 
ICI Pharmaceuticals Group

>  <Link to Ligand in BindingDB>  (1) 
http://www.bindingdb.org/bind/chemsearch/marvin/MolStructure.jsp?monomerid=50003393

>  <Link to Ligand-Target Pair in BindingDB>  (1) 
http://www.bindingdb.org/jsp/dbsearch/PrimarySearch_ki.jsp?energyterm=kJ/mole&tag=r21&monomerid=50003393&enzyme=Type-1+angiotensin+II+receptor&column=ki&startPg=0&Increment=50&submit=Search

>  <Ligand HET ID in PDB>  (1) 


>  <PDB ID(s) for Ligand-Target Complex>  (1) 


>  <PubChem CID of Ligand>  (1) 
11741515

>  <PubChem SID of Ligand>  (1) 
103917366

>  <ChEBI ID of Ligand>  (1) 


>  <ChEMBL ID of Ligand>  (1) 
CHEMBL338048

>  <DrugBank ID of Ligand>  (1) 


>  <IUPHAR_GRAC ID of Ligand>  (1) 


>  <KEGG ID of Ligand>  (1) 


>  <ZINC ID of Ligand>  (1) 
ZINC13728629

>  <Number of Protein Chains in Target (bigger than 1 implies a multichain complex)>  (1) 
1

>  <BindingDB Target Chain Sequence>  (1) 
MILNSSTEDGIKRIQDDCPKAGRHSYIFVMIPTLYSIIFVVGIFGNSLVVIVIYFYMKLKTVASVFLLNLALADICFLLTLPLWAVYTAMEYRWPFGNYLCKIASASVSFNLYASVFLLTCLSIDRYLAIVHPMKSRLRRTMLVAKVTCVIIWLMAGLASLPAVIHRNVFFIENTNITVCAFHYESQNSTLPIGLGLTKNILGFMFPFLIILTSYTLIWKALKKAYEIQKNKPRNDDIFKIIMAIVLFFFFSWVPHQIFTFLDVLIQLGIIHDCKISDIVDTAMPITICIAYFNNCLNPLFYGFLGKKFKKYFLQLLKYIPPKAKSHSTLSTKMSTLSYRPSDNVSSSAKKPVQCFEVE

>  <PDB ID(s) of Target Chain>  (1) 
4ZUD

>  <UniProt (SwissProt) Recommended Name of Target Chain>  (1) 
Type-1 angiotensin II receptor

>  <UniProt (SwissProt) Entry Name of Target Chain>  (1) 
AGTR1_CAVPO

>  <UniProt (SwissProt) Primary ID of Target Chain>  (1) 
Q9WV26

>  <UniProt (SwissProt) Secondary ID(s) of Target Chain>  (1) 


>  <UniProt (SwissProt) Alternative ID(s) of Target Chain>  (1) 


>  <UniProt (TrEMBL) Submitted Name of Target Chain>  (1) 


>  <UniProt (TrEMBL) Entry Name of Target Chain>  (1) 


>  <UniProt (TrEMBL) Primary ID of Target Chain>  (1) 


>  <UniProt (TrEMBL) Secondary ID(s) of Target Chain>  (1) 


>  <UniProt (TrEMBL) Alternative ID(s) of Target Chain>  (1) 


$$$$
