
     RDKit          2D

 43 47  0  0  1  0  0  0  0  0999 V2000
    7.2776   -3.5365    0.0000 C   0  0  0  0  0  0  0  0  0  0  0  0
    7.5406   -2.7557    0.0000 C   0  0  0  0  0  0  0  0  0  0  0  0
    6.4508   -3.5323    0.0000 N   0  0  0  0  0  0  0  0  0  0  0  0
    6.8767   -2.2672    0.0000 N   0  0  0  0  0  0  0  0  0  0  0  0
    2.1587    0.5637    0.0000 N   0  0  0  0  0  0  0  0  0  0  0  0
    6.2045   -2.7432    0.0000 C   0  0  0  0  0  0  0  0  0  0  0  0
    2.8225    1.0480    0.0000 C   0  0  0  0  0  0  0  0  0  0  0  0
    7.7577   -4.2129    0.0000 N   0  0  0  0  0  0  0  0  0  0  0  0
    2.1587   -1.4530    0.0000 C   0  0  0  0  0  0  0  0  0  0  0  0
    2.8726   -1.8664    0.0000 C   0  0  0  0  0  0  0  0  0  0  0  0
    8.3214   -2.5052    0.0000 C   0  0  0  0  0  0  0  0  0  0  0  0
    3.6117    0.7891    0.0000 C   0  0  0  0  0  0  0  0  0  0  0  0
    3.5866   -1.4530    0.0000 N   0  0  0  0  0  0  0  0  0  0  0  0
    6.8809   -1.4405    0.0000 C   0  0  0  0  0  0  0  0  0  0  0  0
    1.4823    1.0480    0.0000 C   0  0  0  0  0  0  0  0  0  0  0  0
    2.5720    1.8371    0.0000 C   0  0  0  0  0  0  0  0  0  0  0  0
    1.7453    1.8371    0.0000 C   0  0  0  0  0  0  0  0  0  0  0  0
    7.4947   -4.9978    0.0000 C   0  0  0  0  0  0  0  0  0  0  0  0
    8.5845   -4.2212    0.0000 C   0  0  0  0  0  0  0  0  0  0  0  0
    1.4405   -1.8664    0.0000 C   0  0  0  0  0  0  0  0  0  0  0  0
    2.8726   -2.6931    0.0000 O   0  0  0  0  0  0  0  0  0  0  0  0
    8.5093   -1.6952    0.0000 O   0  0  0  0  0  0  0  0  0  0  0  0
    4.2254    1.3403    0.0000 O   0  0  0  0  0  0  0  0  0  0  0  0
    8.8350   -5.0020    0.0000 C   0  0  0  0  0  0  0  0  0  0  0  0
    8.1586   -5.4863    0.0000 C   0  0  0  0  0  0  0  0  0  0  0  0
    4.4133   -1.4530    0.0000 C   0  0  0  0  0  0  0  0  0  0  0  0
    6.0542   -1.4447    0.0000 C   0  0  0  0  0  0  0  0  0  0  0  0
    8.9352   -3.0605    0.0000 O   0  0  0  0  0  0  0  0  0  0  0  0
    3.7870   -0.0167    0.0000 O   0  0  0  0  0  0  0  0  0  0  0  0
    5.4154   -2.4843    0.0000 C   0  0  0  0  0  0  0  0  0  0  0  0
    0.7265   -1.4530    0.0000 C   0  0  0  0  0  0  0  0  0  0  0  0
    4.8225   -2.1587    0.0000 C   0  0  0  0  0  0  0  0  0  0  0  0
    4.8142   -0.7390    0.0000 C   0  0  0  0  0  0  0  0  0  0  0  0
    5.6367   -0.7307    0.0000 C   0  0  0  0  0  0  0  0  0  0  0  0
    5.6409   -2.1587    0.0000 C   0  0  0  0  0  0  0  0  0  0  0  0
    0.7265   -0.6263    0.0000 C   0  0  0  0  0  0  0  0  0  0  0  0
    0.0125   -1.8664    0.0000 C   0  0  0  0  0  0  0  0  0  0  0  0
    4.8016   -3.0313    0.0000 C   0  0  0  0  0  0  0  0  0  0  0  0
    4.0125   -2.7682    0.0000 C   0  0  0  0  0  0  0  0  0  0  0  0
    3.3945   -3.3110    0.0000 C   0  0  0  0  0  0  0  0  0  0  0  0
   -0.7015   -1.4572    0.0000 C   0  0  0  0  0  0  0  0  0  0  0  0
    0.0125   -0.2129    0.0000 C   0  0  0  0  0  0  0  0  0  0  0  0
   -0.7098   -0.6263    0.0000 C   0  0  0  0  0  0  0  0  0  0  0  0
  2  1  2  0
  3  1  1  0
  4  2  1  0
  9  5  1  0
  6  3  2  0
  7  5  1  0
  8  1  1  0
  9 10  1  0
 10 13  1  0
 11  2  1  0
 12  7  1  0
 13 26  1  0
 14  4  1  0
 15  5  1  0
 16  7  2  0
 17 15  2  0
 18  8  1  0
 19  8  1  0
  9 20  1  6
 21 10  2  0
 22 11  2  0
 23 12  2  0
 24 19  2  0
 25 18  2  0
 26 32  2  0
 27 14  1  0
 28 11  1  0
 29 12  1  0
 30  6  1  0
 31 20  1  0
 32 35  1  0
 33 34  2  0
 34 27  1  0
 35 27  2  0
 36 31  2  0
 37 31  1  0
 38 30  1  0
 39 38  1  0
 40 39  1  0
 41 37  2  0
 42 36  1  0
 43 41  1  0
  4  6  1  0
 25 24  1  0
 33 26  1  0
 16 17  1  0
 42 43  2  0
M  END
>  <From>  (1) 
www.bindingDB.org

>  <BindingDB Reactant_set_id>  (1) 
50077575

>  <Ligand InChI>  (1) 
InChI=1S/C33H33N5O5/c1-2-3-13-28-35-30(36-18-7-8-19-36)29(33(42)43)38(28)22-24-14-16-25(17-15-24)34-31(39)27(21-23-10-5-4-6-11-23)37-20-9-12-26(37)32(40)41/h4-12,14-20,27H,2-3,13,21-22H2,1H3,(H,34,39)(H,40,41)(H,42,43)/t27-/m0/s1

>  <Ligand InChI Key>  (1) 
GLOSNRHUTKBLFC-MHZLTWQESA-N

>  <BindingDB MonomerID>  (1) 
50047931

>  <BindingDB Ligand Name>  (1) 
2-Butyl-3-{4-[2-(2-carboxy-pyrrol-1-yl)-3-phenyl-propionylamino]-benzyl}-5-pyrrol-1-yl-3H-imidazole-4-carboxylic acid::CHEMBL300487

>  <Target Name>  (1) 
Type-1 angiotensin II receptor B

>  <Target Source Organism According to Curator or DataSource>  (1) 
Rattus

>  <Ki (nM)>  (1) 


>  <IC50 (nM)>  (1) 
 340

>  <Kd (nM)>  (1) 


>  <EC50 (nM)>  (1) 


>  <kon (M-1-s-1)>  (1) 


>  <koff (s-1)>  (1) 


>  <pH>  (1) 


>  <Temp C>  (1) 


>  <Curation/DataSource>  (1) 
ChEMBL

>  <Article DOI>  (1) 
10.1021/jm00064a007

>  <BindingDB Entry DOI>  (1) 
10.7270/Q28W3CCP

>  <PMID>  (1) 
8510101

>  <PubChem AID>  (1) 


>  <Patent Number>  (1) 


>  <Authors>  (1) 
Sircar, I; Winters, RT; Quin, J; Lu, GH; Major, TC; Panek, RL

>  <Institution>  (1) 
Warner-Lambert Company

>  <Link to Ligand in BindingDB>  (1) 
http://www.bindingdb.org/bind/chemsearch/marvin/MolStructure.jsp?monomerid=50047931

>  <Link to Ligand-Target Pair in BindingDB>  (1) 
http://www.bindingdb.org/jsp/dbsearch/PrimarySearch_ki.jsp?energyterm=kJ/mole&tag=r21&monomerid=50047931&enzyme=Type-1+angiotensin+II+receptor+B&column=ki&startPg=0&Increment=50&submit=Search

>  <Ligand HET ID in PDB>  (1) 


>  <PDB ID(s) for Ligand-Target Complex>  (1) 


>  <PubChem CID of Ligand>  (1) 
44293818

>  <PubChem SID of Ligand>  (1) 
103978495

>  <ChEBI ID of Ligand>  (1) 


>  <ChEMBL ID of Ligand>  (1) 
CHEMBL300487

>  <DrugBank ID of Ligand>  (1) 


>  <IUPHAR_GRAC ID of Ligand>  (1) 


>  <KEGG ID of Ligand>  (1) 


>  <ZINC ID of Ligand>  (1) 
ZINC29470415

>  <Number of Protein Chains in Target (bigger than 1 implies a multichain complex)>  (1) 
1

>  <BindingDB Target Chain Sequence>  (1) 
MTLNSSTEDGIKRIQDDCPKAGRHNYIFVMIPTLYSIIFVVGIFGNSLVVIVIYFYMKLKTVASVFLLNLALADLCFLLTLPLWAVYTAMEYRWPFGNHLCKIASASVSFNLYASVFLLTCLSIDRYLAIVHPMKSRLRRTMLVAKVTCIIIWLMAGLASLPAVIYRNVYFIENTNITVCAFHYESQNSTLPIGLGLTKNILGFVFPFLIILTSYTLIWKALKKAYKIQKNTPRNDDIFRIIMAIVLFFFFSWVPHQIFTFLDVLIQLGIIRDCEIADIVDTAMPITICIAYFNNCLNPLFYGFLGKKFKKYFLQLLKYIPPTAKSHAGLSTKMSTLSYRPSDNMSSSAKKSASFFEVE

>  <PDB ID(s) of Target Chain>  (1) 


>  <UniProt (SwissProt) Recommended Name of Target Chain>  (1) 
Type-1 angiotensin II receptor B

>  <UniProt (SwissProt) Entry Name of Target Chain>  (1) 
AGTRB_RAT

>  <UniProt (SwissProt) Primary ID of Target Chain>  (1) 
P29089

>  <UniProt (SwissProt) Secondary ID(s) of Target Chain>  (1) 


>  <UniProt (SwissProt) Alternative ID(s) of Target Chain>  (1) 


>  <UniProt (TrEMBL) Submitted Name of Target Chain>  (1) 


>  <UniProt (TrEMBL) Entry Name of Target Chain>  (1) 


>  <UniProt (TrEMBL) Primary ID of Target Chain>  (1) 


>  <UniProt (TrEMBL) Secondary ID(s) of Target Chain>  (1) 


>  <UniProt (TrEMBL) Alternative ID(s) of Target Chain>  (1) 


$$$$
