
     RDKit          2D

 40 44  0  0  0  0  0  0  0  0999 V2000
    5.0297  -14.4545    0.0000 C   0  0  0  0  0  0  0  0  0  0  0  0
    5.8547  -14.4545    0.0000 C   0  0  0  0  0  0  0  0  0  0  0  0
    6.1115  -13.6704    0.0000 C   0  0  0  0  0  0  0  0  0  0  0  0
    5.4422  -13.1836    0.0000 C   0  0  0  0  0  0  0  0  0  0  0  0
    4.7771  -13.6704    0.0000 C   0  0  0  0  0  0  0  0  0  0  0  0
    4.6172  -15.7253    0.0000 N   0  0  0  0  0  0  0  0  0  0  0  0
    5.2858  -15.2439    0.0000 C   0  0  0  0  0  0  0  0  0  0  0  0
    4.2047  -14.4545    0.0000 C   0  0  0  0  0  0  0  0  0  0  0  0
    3.9480  -15.2425    0.0000 N   0  0  0  0  0  0  0  0  0  0  0  0
    4.6170  -16.5503    0.0000 C   0  0  0  0  0  0  0  0  0  0  0  0
    6.3388  -15.1225    0.0000 O   0  0  0  0  0  0  0  0  0  0  0  0
    3.9924  -13.4158    0.0000 O   0  0  0  0  0  0  0  0  0  0  0  0
    3.1637  -15.4984    0.0000 C   0  0  0  0  0  0  0  0  0  0  0  0
    2.5499  -14.9472    0.0000 C   0  0  0  0  0  0  0  0  0  0  0  0
    1.7656  -15.2032    0.0000 C   0  0  0  0  0  0  0  0  0  0  0  0
    1.1518  -14.6519    0.0000 C   0  0  0  0  0  0  0  0  0  0  0  0
    5.3314  -16.9629    0.0000 C   0  0  0  0  0  0  0  0  0  0  0  0
    5.3262  -17.7886    0.0000 C   0  0  0  0  0  0  0  0  0  0  0  0
    6.0398  -18.2011    0.0000 C   0  0  0  0  0  0  0  0  0  0  0  0
    6.7553  -17.7887    0.0000 C   0  0  0  0  0  0  0  0  0  0  0  0
    6.7528  -16.9595    0.0000 C   0  0  0  0  0  0  0  0  0  0  0  0
    6.0387  -16.5506    0.0000 C   0  0  0  0  0  0  0  0  0  0  0  0
    7.4694  -18.2000    0.0000 C   0  0  0  0  0  0  0  0  0  0  0  0
    7.4690  -19.0261    0.0000 C   0  0  0  0  0  0  0  0  0  0  0  0
    8.1831  -19.4377    0.0000 C   0  0  0  0  0  0  0  0  0  0  0  0
    8.8981  -19.0243    0.0000 C   0  0  0  0  0  0  0  0  0  0  0  0
    8.8945  -18.1951    0.0000 C   0  0  0  0  0  0  0  0  0  0  0  0
    8.1798  -17.7872    0.0000 C   0  0  0  0  0  0  0  0  0  0  0  0
    8.1766  -16.9622    0.0000 S   0  0  0  0  0  0  0  0  0  0  0  0
    8.8895  -16.5469    0.0000 N   0  0  0  0  0  0  0  0  0  0  0  0
    7.3500  -16.9583    0.0000 O   0  0  0  0  0  0  0  0  0  0  0  0
    7.9583  -16.1583    0.0000 O   0  0  0  0  0  0  0  0  0  0  0  0
    9.6055  -16.9567    0.0000 C   0  0  0  0  0  0  0  0  0  0  0  0
   10.3184  -16.5414    0.0000 C   0  0  0  0  0  0  0  0  0  0  0  0
    9.6087  -17.7817    0.0000 O   0  0  0  0  0  0  0  0  0  0  0  0
   11.0298  -16.9537    0.0000 C   0  0  0  0  0  0  0  0  0  0  0  0
   11.7422  -16.5391    0.0000 C   0  0  0  0  0  0  0  0  0  0  0  0
   11.7394  -15.7132    0.0000 C   0  0  0  0  0  0  0  0  0  0  0  0
   11.0183  -15.3037    0.0000 C   0  0  0  0  0  0  0  0  0  0  0  0
   10.3089  -15.7206    0.0000 C   0  0  0  0  0  0  0  0  0  0  0  0
  9  6  1  0
 19 20  2  0
  4  5  1  0
 20 21  1  0
  6 10  1  0
 21 22  2  0
 22 17  1  0
  5  1  1  0
  2 11  2  0
 23 24  2  0
  8  9  1  0
 24 25  1  0
  5 12  2  0
 25 26  2  0
  1  2  1  0
 26 27  1  0
  9 13  1  0
 27 28  2  0
 28 23  1  0
 20 23  1  0
 28 29  1  0
 13 14  1  0
 29 30  1  0
  7  1  1  0
 29 31  2  0
 14 15  1  0
 29 32  2  0
  2  3  1  0
 30 33  1  0
 15 16  1  0
 33 34  1  0
  3  4  1  0
 33 35  2  0
 10 17  1  0
 34 36  2  0
  6  7  1  0
 36 37  1  0
 17 18  2  0
 37 38  2  0
  1  8  1  0
 38 39  1  0
 18 19  1  0
 39 40  2  0
 40 34  1  0
M  END
>  <From>  (1) 
www.bindingDB.org

>  <BindingDB Reactant_set_id>  (1) 
50620766

>  <Ligand InChI>  (1) 
InChI=1S/C31H33N3O5S/c1-2-3-19-33-21-31(28(35)17-18-29(31)36)22-34(33)20-23-13-15-24(16-14-23)26-11-7-8-12-27(26)40(38,39)32-30(37)25-9-5-4-6-10-25/h4-16H,2-3,17-22H2,1H3,(H,32,37)

>  <Ligand InChI Key>  (1) 
HUGFIKPMYCAWNC-UHFFFAOYSA-N

>  <BindingDB MonomerID>  (1) 
50335930

>  <BindingDB Ligand Name>  (1) 
CHEMBL1668000::N-(4'-((3-butyl-6,9-dioxo-2,3-diazaspiro[4.4]nonan-2-yl)methyl)biphenyl-2-ylsulfonyl)benzamide

>  <Target Name>  (1) 
Type-1 angiotensin II receptor

>  <Target Source Organism According to Curator or DataSource>  (1) 
Homo sapiens

>  <Ki (nM)>  (1) 


>  <IC50 (nM)>  (1) 
 12

>  <Kd (nM)>  (1) 


>  <EC50 (nM)>  (1) 


>  <kon (M-1-s-1)>  (1) 


>  <koff (s-1)>  (1) 


>  <pH>  (1) 


>  <Temp C>  (1) 


>  <Curation/DataSource>  (1) 
ChEMBL

>  <Article DOI>  (1) 
10.1016/j.bmc.2010.10.043

>  <BindingDB Entry DOI>  (1) 
10.7270/Q2H70G3T

>  <PMID>  (1) 
21071232

>  <PubChem AID>  (1) 


>  <Patent Number>  (1) 


>  <Authors>  (1) 
Naik, P; Murumkar, P; Giridhar, R; Yadav, MR

>  <Institution>  (1) 
The M. S. University of Baroda

>  <Link to Ligand in BindingDB>  (1) 
http://www.bindingdb.org/bind/chemsearch/marvin/MolStructure.jsp?monomerid=50335930

>  <Link to Ligand-Target Pair in BindingDB>  (1) 
http://www.bindingdb.org/jsp/dbsearch/PrimarySearch_ki.jsp?energyterm=kJ/mole&tag=r21&monomerid=50335930&enzyme=Type-1+angiotensin+II+receptor&column=ki&startPg=0&Increment=50&submit=Search

>  <Ligand HET ID in PDB>  (1) 


>  <PDB ID(s) for Ligand-Target Complex>  (1) 


>  <PubChem CID of Ligand>  (1) 
53319274

>  <PubChem SID of Ligand>  (1) 
125086032

>  <ChEBI ID of Ligand>  (1) 


>  <ChEMBL ID of Ligand>  (1) 
CHEMBL1668000

>  <DrugBank ID of Ligand>  (1) 


>  <IUPHAR_GRAC ID of Ligand>  (1) 


>  <KEGG ID of Ligand>  (1) 


>  <ZINC ID of Ligand>  (1) 
ZINC66101394

>  <Number of Protein Chains in Target (bigger than 1 implies a multichain complex)>  (1) 
1

>  <BindingDB Target Chain Sequence>  (1) 
MILNSSTEDGIKRIQDDCPKAGRHNYIFVMIPTLYSIIFVVGIFGNSLVVIVIYFYMKLKTVASVFLLNLALADLCFLLTLPLWAVYTAMEYRWPFGNYLCKIASASVSFNLYASVFLLTCLSIDRYLAIVHPMKSRLRRTMLVAKVTCIIIWLLAGLASLPAIIHRNVFFIENTNITVCAFHYESQNSTLPIGLGLTKNILGFLFPFLIILTSYTLIWKALKKAYEIQKNKPRNDDIFKIIMAIVLFFFFSWIPHQIFTFLDVLIQLGIIRDCRIADIVDTAMPITICIAYFNNCLNPLFYGFLGKKFKRYFLQLLKYIPPKAKSHSNLSTKMSTLSYRPSDNVSSSTKKPAPCFEVE

>  <PDB ID(s) of Target Chain>  (1) 
6DO1,6OS0,6OS1,6OS2

>  <UniProt (SwissProt) Recommended Name of Target Chain>  (1) 
Type-1 angiotensin II receptor

>  <UniProt (SwissProt) Entry Name of Target Chain>  (1) 
AGTR1_HUMAN

>  <UniProt (SwissProt) Primary ID of Target Chain>  (1) 
P30556

>  <UniProt (SwissProt) Secondary ID(s) of Target Chain>  (1) 
Q13725 Q8TBK4

>  <UniProt (SwissProt) Alternative ID(s) of Target Chain>  (1) 


>  <UniProt (TrEMBL) Submitted Name of Target Chain>  (1) 


>  <UniProt (TrEMBL) Entry Name of Target Chain>  (1) 


>  <UniProt (TrEMBL) Primary ID of Target Chain>  (1) 


>  <UniProt (TrEMBL) Secondary ID(s) of Target Chain>  (1) 


>  <UniProt (TrEMBL) Alternative ID(s) of Target Chain>  (1) 


$$$$
