
     RDKit          2D

 32 36  0  0  0  0  0  0  0  0999 V2000
    2.7214   -1.2089    0.0000 N   0  0  0  0  0  0  0  0  0  0  0  0
    3.3859   -0.7276    0.0000 C   0  0  0  0  0  0  0  0  0  0  0  0
    3.1281    0.0630    0.0000 N   0  0  0  0  0  0  0  0  0  0  0  0
    2.3031    0.0630    0.0000 N   0  0  0  0  0  0  0  0  0  0  0  0
    2.0511   -0.7276    0.0000 C   0  0  0  0  0  0  0  0  0  0  0  0
    6.2792   -2.4464    0.0000 C   0  0  0  0  0  0  0  0  0  0  0  0
    5.8667   -1.1859    0.0000 N   0  0  0  0  0  0  0  0  0  0  0  0
    5.6089   -1.9651    0.0000 N   0  0  0  0  0  0  0  0  0  0  0  0
    6.6917   -1.1745    0.0000 N   0  0  0  0  0  0  0  0  0  0  0  0
    6.9495   -1.9651    0.0000 N   0  0  0  0  0  0  0  0  0  0  0  0
    6.2906   -3.2714    0.0000 C   0  0  0  0  0  0  0  0  0  0  0  0
    5.5745   -3.6839    0.0000 C   0  0  0  0  0  0  0  0  0  0  0  0
    2.7214   -2.0339    0.0000 C   0  0  0  0  0  0  0  0  0  0  0  0
    3.6151    0.7333    0.0000 C   0  0  0  0  0  0  0  0  0  0  0  0
    3.6953    1.5469    0.0000 C   0  0  0  0  0  0  0  0  0  0  0  0
    4.1651   -0.9797    0.0000 O   0  0  0  0  0  0  0  0  0  0  0  0
    4.8641   -3.2714    0.0000 C   0  0  0  0  0  0  0  0  0  0  0  0
    4.1766    2.2114    0.0000 C   0  0  0  0  0  0  0  0  0  0  0  0
    3.3573    2.2973    0.0000 C   0  0  0  0  0  0  0  0  0  0  0  0
    4.8698   -2.4464    0.0000 C   0  0  0  0  0  0  0  0  0  0  0  0
    4.1594   -3.6839    0.0000 C   0  0  0  0  0  0  0  0  0  0  0  0
    3.4375   -2.4464    0.0000 C   0  0  0  0  0  0  0  0  0  0  0  0
    1.2719   -0.9855    0.0000 C   0  0  0  0  0  0  0  0  0  0  0  0
    4.1480   -2.0339    0.0000 C   0  0  0  0  0  0  0  0  0  0  0  0
    3.4433   -3.2714    0.0000 C   0  0  0  0  0  0  0  0  0  0  0  0
    7.0011   -3.6839    0.0000 C   0  0  0  0  0  0  0  0  0  0  0  0
    5.5745   -4.5089    0.0000 C   0  0  0  0  0  0  0  0  0  0  0  0
    0.6531   -0.4355    0.0000 C   0  0  0  0  0  0  0  0  0  0  0  0
   -0.1317   -0.6933    0.0000 C   0  0  0  0  0  0  0  0  0  0  0  0
    7.0011   -4.5089    0.0000 C   0  0  0  0  0  0  0  0  0  0  0  0
    6.2906   -4.9214    0.0000 C   0  0  0  0  0  0  0  0  0  0  0  0
   -0.7505   -0.1433    0.0000 C   0  0  0  0  0  0  0  0  0  0  0  0
  2  1  1  0
  3  2  1  0
  4  5  2  0
  5  1  1  0
  6 11  1  0
  7  8  1  0
  8  6  1  0
  9 10  1  0
 10  6  2  0
 11 12  1  0
 12 17  1  0
 13  1  1  0
 14  3  1  0
 15 14  1  0
 16  2  2  0
 17 21  2  0
 18 15  1  0
 19 15  1  0
 20 24  2  0
 21 25  1  0
 22 13  1  0
 23  5  1  0
 24 22  1  0
 25 22  2  0
 26 11  2  0
 27 12  2  0
 28 23  1  0
 29 28  1  0
 30 31  2  0
 31 27  1  0
 32 29  1  0
  3  4  1  0
 17 20  1  0
 19 18  1  0
 30 26  1  0
  9  7  2  0
M  END
>  <From>  (1) 
www.bindingDB.org

>  <BindingDB Reactant_set_id>  (1) 
50060507

>  <Ligand InChI>  (1) 
InChI=1S/C24H27N7O/c1-2-3-8-22-27-31(16-18-9-10-18)24(32)30(22)15-17-11-13-19(14-12-17)20-6-4-5-7-21(20)23-25-28-29-26-23/h4-7,11-14,18H,2-3,8-10,15-16H2,1H3,(H,25,26,28,29)

>  <Ligand InChI Key>  (1) 
ZPQUNKVDDNKQMS-UHFFFAOYSA-N

>  <BindingDB MonomerID>  (1) 
50044335

>  <BindingDB Ligand Name>  (1) 
5-Butyl-2-cyclopropylmethyl-4-[2'-(1H-tetrazol-5-yl)-biphenyl-4-ylmethyl]-2,4-dihydro-[1,2,4]triazol-3-one::5-Butyl-2-cyclopropylmethyl-4-[2'-(2H-tetrazol-5-yl)-biphenyl-4-ylmethyl]-2,4-dihydro-[1,2,4]triazol-3-one::CHEMBL87669

>  <Target Name>  (1) 
Type-1 angiotensin II receptor

>  <Target Source Organism According to Curator or DataSource>  (1) 
Oryctolagus cuniculus

>  <Ki (nM)>  (1) 


>  <IC50 (nM)>  (1) 
 16

>  <Kd (nM)>  (1) 


>  <EC50 (nM)>  (1) 


>  <kon (M-1-s-1)>  (1) 


>  <koff (s-1)>  (1) 


>  <pH>  (1) 


>  <Temp C>  (1) 


>  <Curation/DataSource>  (1) 
ChEMBL

>  <Article DOI>  (1) 
10.1021/jm00069a015

>  <BindingDB Entry DOI>  (1) 
10.7270/Q2KP817C

>  <PMID>  (1) 
8355255

>  <PubChem AID>  (1) 


>  <Patent Number>  (1) 


>  <Authors>  (1) 
Chang, LL; Ashton, WT; Flanagan, KL; Strelitz, RA; MacCoss, M; Greenlee, WJ; Chang, RS; Lotti, VJ; Faust, KA; Chen, TB

>  <Institution>  (1) 
Merck Research Laboratories

>  <Link to Ligand in BindingDB>  (1) 
http://www.bindingdb.org/bind/chemsearch/marvin/MolStructure.jsp?monomerid=50044335

>  <Link to Ligand-Target Pair in BindingDB>  (1) 
http://www.bindingdb.org/jsp/dbsearch/PrimarySearch_ki.jsp?energyterm=kJ/mole&tag=r21&monomerid=50044335&enzyme=Type-1+angiotensin+II+receptor&column=ki&startPg=0&Increment=50&submit=Search

>  <Ligand HET ID in PDB>  (1) 


>  <PDB ID(s) for Ligand-Target Complex>  (1) 


>  <PubChem CID of Ligand>  (1) 
14951062

>  <PubChem SID of Ligand>  (1) 
103975590

>  <ChEBI ID of Ligand>  (1) 


>  <ChEMBL ID of Ligand>  (1) 
CHEMBL87669

>  <DrugBank ID of Ligand>  (1) 


>  <IUPHAR_GRAC ID of Ligand>  (1) 


>  <KEGG ID of Ligand>  (1) 


>  <ZINC ID of Ligand>  (1) 
ZINC01555162

>  <Number of Protein Chains in Target (bigger than 1 implies a multichain complex)>  (1) 
1

>  <BindingDB Target Chain Sequence>  (1) 
MMLNSSTEDGIKRIQDDCPKAGRHNYIFVMIPTLYSIIFVVGIFGNSLAVIVIYFYMKLKTVASVFLLNLALADLCFLLTLPLWAVYTAMEYRWPFGNYLCKIASASVSFNLYASVFLLTCLSIDRYLAIVHPMKSRLRRTMLVAKVTCIIIWLLAGLASLPAIIHRNVFFIENTNITVCAFHYESQNSTLPIGLGLTKNILGFLFPFLIILTSYTLIWKALKKAYEIQKNKPRNDDIFKIIMAIVLFFFFSWVPHQIFTFLDVLIQLGVIHDCRIADIVDTAMPITICIAYFNNCLNPLFYGFLGKKFKKYFLQLLKYIPPKAKSHSNLSTKMSTLSYRPSDNVSSSSKKPVPCFEVE

>  <PDB ID(s) of Target Chain>  (1) 
6DO1,6OS0,6OS1,6OS2

>  <UniProt (SwissProt) Recommended Name of Target Chain>  (1) 
Type-1 angiotensin II receptor

>  <UniProt (SwissProt) Entry Name of Target Chain>  (1) 
AGTR1_RABIT

>  <UniProt (SwissProt) Primary ID of Target Chain>  (1) 
P34976

>  <UniProt (SwissProt) Secondary ID(s) of Target Chain>  (1) 


>  <UniProt (SwissProt) Alternative ID(s) of Target Chain>  (1) 


>  <UniProt (TrEMBL) Submitted Name of Target Chain>  (1) 


>  <UniProt (TrEMBL) Entry Name of Target Chain>  (1) 


>  <UniProt (TrEMBL) Primary ID of Target Chain>  (1) 


>  <UniProt (TrEMBL) Secondary ID(s) of Target Chain>  (1) 


>  <UniProt (TrEMBL) Alternative ID(s) of Target Chain>  (1) 


$$$$
