
     RDKit          2D

 28 31  0  0  0  0  0  0  0  0999 V2000
    2.5298   -5.5263    0.0000 N   0  0  0  0  0  0  0  0  0  0  0  0
    1.7629   -5.2179    0.0000 C   0  0  0  0  0  0  0  0  0  0  0  0
    1.6796   -6.5557    0.0000 N   0  0  0  0  0  0  0  0  0  0  0  0
    1.2378   -5.8555    0.0000 C   0  0  0  0  0  0  0  0  0  0  0  0
    2.4756   -6.3432    0.0000 C   0  0  0  0  0  0  0  0  0  0  0  0
    8.6562   -7.3684    0.0000 N   0  0  0  0  0  0  0  0  0  0  0  0
    7.4309   -6.8391    0.0000 C   0  0  0  0  0  0  0  0  0  0  0  0
    8.1061   -7.9893    0.0000 N   0  0  0  0  0  0  0  0  0  0  0  0
    8.2394   -6.6557    0.0000 N   0  0  0  0  0  0  0  0  0  0  0  0
    7.3517   -7.6560    0.0000 N   0  0  0  0  0  0  0  0  0  0  0  0
    6.8183   -6.2889    0.0000 C   0  0  0  0  0  0  0  0  0  0  0  0
    3.2299   -5.0804    0.0000 C   0  0  0  0  0  0  0  0  0  0  0  0
    6.1014   -6.7057    0.0000 C   0  0  0  0  0  0  0  0  0  0  0  0
    5.3887   -6.2931    0.0000 C   0  0  0  0  0  0  0  0  0  0  0  0
    5.3887   -5.4680    0.0000 C   0  0  0  0  0  0  0  0  0  0  0  0
    3.9551   -5.4680    0.0000 C   0  0  0  0  0  0  0  0  0  0  0  0
    4.6678   -5.0554    0.0000 C   0  0  0  0  0  0  0  0  0  0  0  0
    0.4126   -5.8013    0.0000 Cl  0  0  0  0  0  0  0  0  0  0  0  0
    6.8141   -5.4555    0.0000 C   0  0  0  0  0  0  0  0  0  0  0  0
    6.0931   -5.0512    0.0000 C   0  0  0  0  0  0  0  0  0  0  0  0
    4.6678   -6.7057    0.0000 C   0  0  0  0  0  0  0  0  0  0  0  0
    1.5629   -4.4177    0.0000 C   0  0  0  0  0  0  0  0  0  0  0  0
    3.9634   -6.3014    0.0000 C   0  0  0  0  0  0  0  0  0  0  0  0
    3.1132   -6.8766    0.0000 C   0  0  0  0  0  0  0  0  0  0  0  0
    0.7669   -4.1927    0.0000 O   0  0  0  0  0  0  0  0  0  0  0  0
    2.9757   -7.6893    0.0000 C   0  0  0  0  0  0  0  0  0  0  0  0
    3.6050   -8.2144    0.0000 C   0  0  0  0  0  0  0  0  0  0  0  0
    3.4675   -9.0271    0.0000 C   0  0  0  0  0  0  0  0  0  0  0  0
  2  1  1  0
  3  5  2  0
  4  2  2  0
  5  1  1  0
  6  9  1  0
  7 11  1  0
  8 10  1  0
  9  7  1  0
 10  7  2  0
 11 13  2  0
 12  1  1  0
 13 14  1  0
 14 21  2  0
 15 17  2  0
 16 12  1  0
 17 16  1  0
 18  4  1  0
 19 20  2  0
 20 15  1  0
 21 23  1  0
 22  2  1  0
 23 16  2  0
 24  5  1  0
 25 22  1  0
 26 24  1  0
 27 26  1  0
 28 27  1  0
  4  3  1  0
 15 14  1  0
 19 11  1  0
  8  6  2  0
M  END
>  <From>  (1) 
www.bindingDB.org

>  <BindingDB Reactant_set_id>  (1) 
50015055

>  <Ligand InChI>  (1) 
InChI=1S/C20H21ClN6O/c1-2-3-4-18-22-19(21)17(12-28)27(18)11-13-5-6-15-10-16(8-7-14(15)9-13)20-23-25-26-24-20/h5-10,28H,2-4,11-12H2,1H3,(H,23,24,25,26)

>  <Ligand InChI Key>  (1) 
UZCAPRSSSKVUCG-UHFFFAOYSA-N

>  <BindingDB MonomerID>  (1) 
50010144

>  <BindingDB Ligand Name>  (1) 
CHEMBL322071::{2-Butyl-5-chloro-3-[6-(1H-tetrazol-5-yl)-naphthalen-2-ylmethyl]-3H-imidazol-4-yl}-methanol

>  <Target Name>  (1) 
Type-1 angiotensin II receptor B

>  <Target Source Organism According to Curator or DataSource>  (1) 
Rattus

>  <Ki (nM)>  (1) 


>  <IC50 (nM)>  (1) 
 600

>  <Kd (nM)>  (1) 


>  <EC50 (nM)>  (1) 


>  <kon (M-1-s-1)>  (1) 


>  <koff (s-1)>  (1) 


>  <pH>  (1) 


>  <Temp C>  (1) 


>  <Curation/DataSource>  (1) 
ChEMBL

>  <Article DOI>  (1) 
10.1021/jm00114a021

>  <BindingDB Entry DOI>  (1) 
10.7270/Q27S7MRP

>  <PMID>  (1) 
1920360

>  <PubChem AID>  (1) 


>  <Patent Number>  (1) 


>  <Authors>  (1) 
Buhlmayer, P; Criscione, L; Fuhrer, W; Furet, P; de Gasparo, M; Stutz, S; Whitebread, S

>  <Institution>  (1) 
Ciba-Geigy Limited

>  <Link to Ligand in BindingDB>  (1) 
http://www.bindingdb.org/bind/chemsearch/marvin/MolStructure.jsp?monomerid=50010144

>  <Link to Ligand-Target Pair in BindingDB>  (1) 
http://www.bindingdb.org/jsp/dbsearch/PrimarySearch_ki.jsp?energyterm=kJ/mole&tag=r21&monomerid=50010144&enzyme=Type-1+angiotensin+II+receptor+B&column=ki&startPg=0&Increment=50&submit=Search

>  <Ligand HET ID in PDB>  (1) 


>  <PDB ID(s) for Ligand-Target Complex>  (1) 


>  <PubChem CID of Ligand>  (1) 
15699054

>  <PubChem SID of Ligand>  (1) 
103923015

>  <ChEBI ID of Ligand>  (1) 


>  <ChEMBL ID of Ligand>  (1) 
CHEMBL322071

>  <DrugBank ID of Ligand>  (1) 


>  <IUPHAR_GRAC ID of Ligand>  (1) 


>  <KEGG ID of Ligand>  (1) 


>  <ZINC ID of Ligand>  (1) 
ZINC13825374

>  <Number of Protein Chains in Target (bigger than 1 implies a multichain complex)>  (1) 
1

>  <BindingDB Target Chain Sequence>  (1) 
MTLNSSTEDGIKRIQDDCPKAGRHNYIFVMIPTLYSIIFVVGIFGNSLVVIVIYFYMKLKTVASVFLLNLALADLCFLLTLPLWAVYTAMEYRWPFGNHLCKIASASVSFNLYASVFLLTCLSIDRYLAIVHPMKSRLRRTMLVAKVTCIIIWLMAGLASLPAVIYRNVYFIENTNITVCAFHYESQNSTLPIGLGLTKNILGFVFPFLIILTSYTLIWKALKKAYKIQKNTPRNDDIFRIIMAIVLFFFFSWVPHQIFTFLDVLIQLGIIRDCEIADIVDTAMPITICIAYFNNCLNPLFYGFLGKKFKKYFLQLLKYIPPTAKSHAGLSTKMSTLSYRPSDNMSSSAKKSASFFEVE

>  <PDB ID(s) of Target Chain>  (1) 


>  <UniProt (SwissProt) Recommended Name of Target Chain>  (1) 
Type-1 angiotensin II receptor B

>  <UniProt (SwissProt) Entry Name of Target Chain>  (1) 
AGTRB_RAT

>  <UniProt (SwissProt) Primary ID of Target Chain>  (1) 
P29089

>  <UniProt (SwissProt) Secondary ID(s) of Target Chain>  (1) 


>  <UniProt (SwissProt) Alternative ID(s) of Target Chain>  (1) 


>  <UniProt (TrEMBL) Submitted Name of Target Chain>  (1) 


>  <UniProt (TrEMBL) Entry Name of Target Chain>  (1) 


>  <UniProt (TrEMBL) Primary ID of Target Chain>  (1) 


>  <UniProt (TrEMBL) Secondary ID(s) of Target Chain>  (1) 


>  <UniProt (TrEMBL) Alternative ID(s) of Target Chain>  (1) 


$$$$
