
     RDKit          2D

 44 49  0  0  0  0  0  0  0  0999 V2000
    4.8104   -4.0278    0.0000 N   0  0  0  0  0  0  0  0  0  0  0  0
    5.4833   -3.5472    0.0000 C   0  0  0  0  0  0  0  0  0  0  0  0
    5.2224   -2.7508    0.0000 N   0  0  0  0  0  0  0  0  0  0  0  0
    4.3985   -2.7508    0.0000 N   0  0  0  0  0  0  0  0  0  0  0  0
    4.1467   -3.5472    0.0000 C   0  0  0  0  0  0  0  0  0  0  0  0
    8.3759   -5.2636    0.0000 C   0  0  0  0  0  0  0  0  0  0  0  0
    7.7077   -4.7830    0.0000 N   0  0  0  0  0  0  0  0  0  0  0  0
    7.9639   -4.0003    0.0000 N   0  0  0  0  0  0  0  0  0  0  0  0
    9.0487   -4.7830    0.0000 N   0  0  0  0  0  0  0  0  0  0  0  0
    8.7924   -3.9957    0.0000 N   0  0  0  0  0  0  0  0  0  0  0  0
    5.7121   -2.0871    0.0000 C   0  0  0  0  0  0  0  0  0  0  0  0
    8.3896   -6.0874    0.0000 C   0  0  0  0  0  0  0  0  0  0  0  0
    7.6665   -6.5085    0.0000 C   0  0  0  0  0  0  0  0  0  0  0  0
    4.8104   -4.8516    0.0000 C   0  0  0  0  0  0  0  0  0  0  0  0
    6.2613   -3.7944    0.0000 O   0  0  0  0  0  0  0  0  0  0  0  0
    5.3688   -1.3456    0.0000 C   0  0  0  0  0  0  0  0  0  0  0  0
    6.9616   -6.0874    0.0000 C   0  0  0  0  0  0  0  0  0  0  0  0
    5.8494   -0.6637    0.0000 O   0  0  0  0  0  0  0  0  0  0  0  0
    4.5449   -1.2632    0.0000 C   0  0  0  0  0  0  0  0  0  0  0  0
    6.9662   -5.2636    0.0000 C   0  0  0  0  0  0  0  0  0  0  0  0
    6.2522   -6.5085    0.0000 C   0  0  0  0  0  0  0  0  0  0  0  0
    5.5336   -5.2636    0.0000 C   0  0  0  0  0  0  0  0  0  0  0  0
    6.6732   -0.7461    0.0000 C   0  0  0  0  0  0  0  0  0  0  0  0
    3.3687   -3.8035    0.0000 C   0  0  0  0  0  0  0  0  0  0  0  0
    5.5382   -6.0874    0.0000 C   0  0  0  0  0  0  0  0  0  0  0  0
    6.2385   -4.8516    0.0000 C   0  0  0  0  0  0  0  0  0  0  0  0
    7.1538   -0.0733    0.0000 C   0  0  0  0  0  0  0  0  0  0  0  0
    9.0945   -6.5085    0.0000 C   0  0  0  0  0  0  0  0  0  0  0  0
    7.6665   -7.3323    0.0000 C   0  0  0  0  0  0  0  0  0  0  0  0
    4.2063   -0.5127    0.0000 C   0  0  0  0  0  0  0  0  0  0  0  0
    4.0690   -1.9269    0.0000 C   0  0  0  0  0  0  0  0  0  0  0  0
    7.9777   -0.1557    0.0000 C   0  0  0  0  0  0  0  0  0  0  0  0
    6.8105    0.6682    0.0000 C   0  0  0  0  0  0  0  0  0  0  0  0
    2.7462   -3.2542    0.0000 C   0  0  0  0  0  0  0  0  0  0  0  0
    1.9635   -3.5151    0.0000 C   0  0  0  0  0  0  0  0  0  0  0  0
    9.0945   -7.3323    0.0000 C   0  0  0  0  0  0  0  0  0  0  0  0
    8.3896   -7.7443    0.0000 C   0  0  0  0  0  0  0  0  0  0  0  0
    1.3365   -2.9659    0.0000 C   0  0  0  0  0  0  0  0  0  0  0  0
    3.2451   -1.8583    0.0000 C   0  0  0  0  0  0  0  0  0  0  0  0
    3.3824   -0.4303    0.0000 C   0  0  0  0  0  0  0  0  0  0  0  0
    7.2820    1.3410    0.0000 C   0  0  0  0  0  0  0  0  0  0  0  0
    8.4491    0.5080    0.0000 C   0  0  0  0  0  0  0  0  0  0  0  0
    2.9018   -1.1031    0.0000 C   0  0  0  0  0  0  0  0  0  0  0  0
    8.1059    1.2724    0.0000 C   0  0  0  0  0  0  0  0  0  0  0  0
  2  1  1  0
  3  2  1  0
  4  5  2  0
  5  1  1  0
  6 12  1  0
  7  6  1  0
  8  7  1  0
  9  6  2  0
 10  9  1  0
 11  3  1  0
 12 13  1  0
 13 17  1  0
 14  1  1  0
 15  2  2  0
 16 11  1  0
 17 20  2  0
 18 16  1  0
 19 16  1  0
 20 26  1  0
 21 25  2  0
 22 14  1  0
 23 18  1  0
 24  5  1  0
 25 22  1  0
 26 22  2  0
 27 23  1  0
 28 12  2  0
 29 13  2  0
 30 19  2  0
 31 19  1  0
 32 27  2  0
 33 27  1  0
 34 24  1  0
 35 34  1  0
 36 37  2  0
 37 29  1  0
 38 35  1  0
 39 31  2  0
 40 30  1  0
 41 33  2  0
 42 32  1  0
 43 39  1  0
 44 41  1  0
  3  4  1  0
 21 17  1  0
 40 43  2  0
 36 28  1  0
 10  8  2  0
 42 44  2  0
M  END
>  <From>  (1) 
www.bindingDB.org

>  <BindingDB Reactant_set_id>  (1) 
50071166

>  <Ligand InChI>  (1) 
InChI=1S/C35H35N7O2/c1-2-3-18-33-38-42(24-32(29-14-8-5-9-15-29)44-25-27-12-6-4-7-13-27)35(43)41(33)23-26-19-21-28(22-20-26)30-16-10-11-17-31(30)34-36-39-40-37-34/h4-17,19-22,32H,2-3,18,23-25H2,1H3,(H,36,37,39,40)

>  <Ligand InChI Key>  (1) 
RZITYYAFNHFVJH-UHFFFAOYSA-N

>  <BindingDB MonomerID>  (1) 
50044353

>  <BindingDB Ligand Name>  (1) 
2-(2-Benzyloxy-2-phenyl-ethyl)-5-butyl-4-[2'-(2H-tetrazol-5-yl)-biphenyl-4-ylmethyl]-2,4-dihydro-[1,2,4]triazol-3-one::CHEMBL443005

>  <Target Name>  (1) 
Type-1 angiotensin II receptor B

>  <Target Source Organism According to Curator or DataSource>  (1) 
Rattus

>  <Ki (nM)>  (1) 


>  <IC50 (nM)>  (1) 
 280

>  <Kd (nM)>  (1) 


>  <EC50 (nM)>  (1) 


>  <kon (M-1-s-1)>  (1) 


>  <koff (s-1)>  (1) 


>  <pH>  (1) 


>  <Temp C>  (1) 


>  <Curation/DataSource>  (1) 
ChEMBL

>  <Article DOI>  (1) 
10.1021/jm00067a015

>  <BindingDB Entry DOI>  (1) 
10.7270/Q2C53JXM

>  <PMID>  (1) 
8340920

>  <PubChem AID>  (1) 


>  <Patent Number>  (1) 


>  <Authors>  (1) 
Huang, HC; Reitz, DB; Chamberlain, TS; Olins, GM; Corpus, VM; McMahon, EG; Palomo, MA; Koepke, JP; Smits, GJ; McGraw, DE

>  <Institution>  (1) 
Searle R&D

>  <Link to Ligand in BindingDB>  (1) 
http://www.bindingdb.org/bind/chemsearch/marvin/MolStructure.jsp?monomerid=50044353

>  <Link to Ligand-Target Pair in BindingDB>  (1) 
http://www.bindingdb.org/jsp/dbsearch/PrimarySearch_ki.jsp?energyterm=kJ/mole&tag=r21&monomerid=50044353&enzyme=Type-1+angiotensin+II+receptor+B&column=ki&startPg=0&Increment=50&submit=Search

>  <Ligand HET ID in PDB>  (1) 


>  <PDB ID(s) for Ligand-Target Complex>  (1) 


>  <PubChem CID of Ligand>  (1) 
14951086

>  <PubChem SID of Ligand>  (1) 
103975608

>  <ChEBI ID of Ligand>  (1) 


>  <ChEMBL ID of Ligand>  (1) 
CHEMBL443005

>  <DrugBank ID of Ligand>  (1) 


>  <IUPHAR_GRAC ID of Ligand>  (1) 


>  <KEGG ID of Ligand>  (1) 


>  <ZINC ID of Ligand>  (1) 
ZINC26276613

>  <Number of Protein Chains in Target (bigger than 1 implies a multichain complex)>  (1) 
1

>  <BindingDB Target Chain Sequence>  (1) 
MTLNSSTEDGIKRIQDDCPKAGRHNYIFVMIPTLYSIIFVVGIFGNSLVVIVIYFYMKLKTVASVFLLNLALADLCFLLTLPLWAVYTAMEYRWPFGNHLCKIASASVSFNLYASVFLLTCLSIDRYLAIVHPMKSRLRRTMLVAKVTCIIIWLMAGLASLPAVIYRNVYFIENTNITVCAFHYESQNSTLPIGLGLTKNILGFVFPFLIILTSYTLIWKALKKAYKIQKNTPRNDDIFRIIMAIVLFFFFSWVPHQIFTFLDVLIQLGIIRDCEIADIVDTAMPITICIAYFNNCLNPLFYGFLGKKFKKYFLQLLKYIPPTAKSHAGLSTKMSTLSYRPSDNMSSSAKKSASFFEVE

>  <PDB ID(s) of Target Chain>  (1) 


>  <UniProt (SwissProt) Recommended Name of Target Chain>  (1) 
Type-1 angiotensin II receptor B

>  <UniProt (SwissProt) Entry Name of Target Chain>  (1) 
AGTRB_RAT

>  <UniProt (SwissProt) Primary ID of Target Chain>  (1) 
P29089

>  <UniProt (SwissProt) Secondary ID(s) of Target Chain>  (1) 


>  <UniProt (SwissProt) Alternative ID(s) of Target Chain>  (1) 


>  <UniProt (TrEMBL) Submitted Name of Target Chain>  (1) 


>  <UniProt (TrEMBL) Entry Name of Target Chain>  (1) 


>  <UniProt (TrEMBL) Primary ID of Target Chain>  (1) 


>  <UniProt (TrEMBL) Secondary ID(s) of Target Chain>  (1) 


>  <UniProt (TrEMBL) Alternative ID(s) of Target Chain>  (1) 


$$$$
