
     RDKit          2D

 34 37  0  0  0  0  0  0  0  0999 V2000
    4.8485    0.0000    0.0000 S   0  0  0  0  0  0  0  0  0  0  0  0
    1.9161    1.6370    0.0000 C   0  0  0  0  0  0  0  0  0  0  0  0
    1.2621    1.1329    0.0000 N   0  0  0  0  0  0  0  0  0  0  0  0
    4.8402    0.8247    0.0000 N   0  0  0  0  0  0  0  0  0  0  0  0
    0.8039    2.3950    0.0000 N   0  0  0  0  0  0  0  0  0  0  0  0
    1.6412    2.4200    0.0000 C   0  0  0  0  0  0  0  0  0  0  0  0
    0.5748    1.5995    0.0000 C   0  0  0  0  0  0  0  0  0  0  0  0
    5.5524    1.2454    0.0000 C   0  0  0  0  0  0  0  0  0  0  0  0
    4.8777   -0.8247    0.0000 C   0  0  0  0  0  0  0  0  0  0  0  0
    2.7116    1.4079    0.0000 C   0  0  0  0  0  0  0  0  0  0  0  0
    6.2730    0.8455    0.0000 C   0  0  0  0  0  0  0  0  0  0  0  0
    4.1779   -1.2538    0.0000 C   0  0  0  0  0  0  0  0  0  0  0  0
    6.6896    0.1333    0.0000 C   0  0  0  0  0  0  0  0  0  0  0  0
    7.0977    0.8580    0.0000 C   0  0  0  0  0  0  0  0  0  0  0  0
    5.6732    0.0208    0.0000 O   0  0  0  0  0  0  0  0  0  0  0  0
    4.0237   -0.0167    0.0000 O   0  0  0  0  0  0  0  0  0  0  0  0
    1.2788    0.3082    0.0000 C   0  0  0  0  0  0  0  0  0  0  0  0
    3.4531   -0.8664    0.0000 C   0  0  0  0  0  0  0  0  0  0  0  0
    5.5482    2.0826    0.0000 O   0  0  0  0  0  0  0  0  0  0  0  0
    2.9033    0.5998    0.0000 O   0  0  0  0  0  0  0  0  0  0  0  0
    3.4281   -0.0292    0.0000 C   0  0  0  0  0  0  0  0  0  0  0  0
    2.7491   -1.2996    0.0000 C   0  0  0  0  0  0  0  0  0  0  0  0
    2.0036   -0.0792    0.0000 C   0  0  0  0  0  0  0  0  0  0  0  0
    3.3032    1.9702    0.0000 O   0  0  0  0  0  0  0  0  0  0  0  0
    2.0244   -0.9039    0.0000 C   0  0  0  0  0  0  0  0  0  0  0  0
    2.7033    0.3499    0.0000 C   0  0  0  0  0  0  0  0  0  0  0  0
   -0.2457    1.5995    0.0000 C   0  0  0  0  0  0  0  0  0  0  0  0
    5.6024   -1.2121    0.0000 C   0  0  0  0  0  0  0  0  0  0  0  0
    4.1987   -2.0785    0.0000 C   0  0  0  0  0  0  0  0  0  0  0  0
   -0.6581    0.8872    0.0000 C   0  0  0  0  0  0  0  0  0  0  0  0
   -1.4828    0.8872    0.0000 C   0  0  0  0  0  0  0  0  0  0  0  0
    5.6274   -2.0411    0.0000 C   0  0  0  0  0  0  0  0  0  0  0  0
    4.9276   -2.4742    0.0000 C   0  0  0  0  0  0  0  0  0  0  0  0
   -1.8952    1.6078    0.0000 C   0  0  0  0  0  0  0  0  0  0  0  0
  2  3  1  0
  3 17  1  0
  4  1  1  0
  5  7  2  0
  6  2  2  0
  7  3  1  0
  8  4  1  0
  9  1  1  0
 10  2  1  0
 11  8  1  0
 12  9  1  0
 13 11  1  0
 14 11  1  0
 15  1  2  0
 16  1  2  0
 17 23  1  0
 18 12  1  0
 19  8  2  0
 20 10  2  0
 21 18  2  0
 22 18  1  0
 23 25  1  0
 24 10  1  0
 25 22  2  0
 26 21  1  0
 27  7  1  0
 28  9  2  0
 29 12  2  0
 30 27  1  0
 31 30  1  0
 32 28  1  0
 33 32  2  0
 34 31  1  0
 33 29  1  0
 13 14  1  0
 23 26  2  0
  5  6  1  0
M  END
>  <From>  (1) 
www.bindingDB.org

>  <BindingDB Reactant_set_id>  (1) 
50002758

>  <Ligand InChI>  (1) 
InChI=1S/C25H27N3O5S/c1-2-3-8-23-26-15-21(25(30)31)28(23)16-17-9-11-18(12-10-17)20-6-4-5-7-22(20)34(32,33)27-24(29)19-13-14-19/h4-7,9-12,15,19H,2-3,8,13-14,16H2,1H3,(H,27,29)(H,30,31)

>  <Ligand InChI Key>  (1) 
TWPGGMFJTGIQQP-UHFFFAOYSA-N

>  <BindingDB MonomerID>  (1) 
50282426

>  <BindingDB Ligand Name>  (1) 
2-Butyl-3-[2'-(cyclopropanecarbonyl-sulfamoyl)-biphenyl-4-ylmethyl]-3H-imidazole-4-carboxylic acid::CHEMBL349856

>  <Target Name>  (1) 
Type-1 angiotensin II receptor

>  <Target Source Organism According to Curator or DataSource>  (1) 
Oryctolagus cuniculus

>  <Ki (nM)>  (1) 


>  <IC50 (nM)>  (1) 
 5.8

>  <Kd (nM)>  (1) 


>  <EC50 (nM)>  (1) 


>  <kon (M-1-s-1)>  (1) 


>  <koff (s-1)>  (1) 


>  <pH>  (1) 


>  <Temp C>  (1) 


>  <Curation/DataSource>  (1) 
ChEMBL

>  <Article DOI>  (1) 
10.1016/S0960-894X(01)81124-0

>  <BindingDB Entry DOI>  (1) 
10.7270/Q2NS0TVK

>  <PMID>  (1) 


>  <PubChem AID>  (1) 


>  <Patent Number>  (1) 


>  <Authors>  (1) 
Naylor, EM; Chakravarty, PK; Costello, CA; Chang, RS; Chen, TB; Faust, KA; Lotti, VJ; Kivlighn, SD; Zingaro, GJ; Siegl, PK; Wong, PC; Carini, DJ; Wexler, RR; Patchett, AA; Greenlee, WJ

>  <Institution>  (1) 
TBA

>  <Link to Ligand in BindingDB>  (1) 
http://www.bindingdb.org/bind/chemsearch/marvin/MolStructure.jsp?monomerid=50282426

>  <Link to Ligand-Target Pair in BindingDB>  (1) 
http://www.bindingdb.org/jsp/dbsearch/PrimarySearch_ki.jsp?energyterm=kJ/mole&tag=r21&monomerid=50282426&enzyme=Type-1+angiotensin+II+receptor&column=ki&startPg=0&Increment=50&submit=Search

>  <Ligand HET ID in PDB>  (1) 


>  <PDB ID(s) for Ligand-Target Complex>  (1) 


>  <PubChem CID of Ligand>  (1) 
44377123

>  <PubChem SID of Ligand>  (1) 
104124100

>  <ChEBI ID of Ligand>  (1) 


>  <ChEMBL ID of Ligand>  (1) 
CHEMBL349856

>  <DrugBank ID of Ligand>  (1) 


>  <IUPHAR_GRAC ID of Ligand>  (1) 


>  <KEGG ID of Ligand>  (1) 


>  <ZINC ID of Ligand>  (1) 
ZINC27855465

>  <Number of Protein Chains in Target (bigger than 1 implies a multichain complex)>  (1) 
1

>  <BindingDB Target Chain Sequence>  (1) 
MMLNSSTEDGIKRIQDDCPKAGRHNYIFVMIPTLYSIIFVVGIFGNSLAVIVIYFYMKLKTVASVFLLNLALADLCFLLTLPLWAVYTAMEYRWPFGNYLCKIASASVSFNLYASVFLLTCLSIDRYLAIVHPMKSRLRRTMLVAKVTCIIIWLLAGLASLPAIIHRNVFFIENTNITVCAFHYESQNSTLPIGLGLTKNILGFLFPFLIILTSYTLIWKALKKAYEIQKNKPRNDDIFKIIMAIVLFFFFSWVPHQIFTFLDVLIQLGVIHDCRIADIVDTAMPITICIAYFNNCLNPLFYGFLGKKFKKYFLQLLKYIPPKAKSHSNLSTKMSTLSYRPSDNVSSSSKKPVPCFEVE

>  <PDB ID(s) of Target Chain>  (1) 
6DO1,6OS0,6OS1,6OS2

>  <UniProt (SwissProt) Recommended Name of Target Chain>  (1) 
Type-1 angiotensin II receptor

>  <UniProt (SwissProt) Entry Name of Target Chain>  (1) 
AGTR1_RABIT

>  <UniProt (SwissProt) Primary ID of Target Chain>  (1) 
P34976

>  <UniProt (SwissProt) Secondary ID(s) of Target Chain>  (1) 


>  <UniProt (SwissProt) Alternative ID(s) of Target Chain>  (1) 


>  <UniProt (TrEMBL) Submitted Name of Target Chain>  (1) 


>  <UniProt (TrEMBL) Entry Name of Target Chain>  (1) 


>  <UniProt (TrEMBL) Primary ID of Target Chain>  (1) 


>  <UniProt (TrEMBL) Secondary ID(s) of Target Chain>  (1) 


>  <UniProt (TrEMBL) Alternative ID(s) of Target Chain>  (1) 


$$$$
