
     RDKit          2D

 35 39  0  0  0  0  0  0  0  0999 V2000
    2.0542   -1.6167    0.0000 N   0  0  0  0  0  0  0  0  0  0  0  0
    2.6292   -1.4292    0.0000 C   0  0  0  0  0  0  0  0  0  0  0  0
    2.0542   -0.6500    0.0000 N   0  0  0  0  0  0  0  0  0  0  0  0
    1.7042   -1.1375    0.0000 C   0  0  0  0  0  0  0  0  0  0  0  0
    4.4292   -3.7500    0.0000 C   0  0  0  0  0  0  0  0  0  0  0  0
    3.1417   -1.7292    0.0000 C   0  0  0  0  0  0  0  0  0  0  0  0
    4.2917   -2.7875    0.0000 N   0  0  0  0  0  0  0  0  0  0  0  0
    4.0125   -3.3167    0.0000 N   0  0  0  0  0  0  0  0  0  0  0  0
    4.8792   -2.8875    0.0000 N   0  0  0  0  0  0  0  0  0  0  0  0
    2.6250   -0.8292    0.0000 C   0  0  0  0  0  0  0  0  0  0  0  0
    4.9667   -3.4792    0.0000 N   0  0  0  0  0  0  0  0  0  0  0  0
    4.2542   -4.3167    0.0000 C   0  0  0  0  0  0  0  0  0  0  0  0
    3.1500   -2.1625    0.0000 C   0  0  0  0  0  0  0  0  0  0  0  0
    3.6667   -4.4417    0.0000 C   0  0  0  0  0  0  0  0  0  0  0  0
    2.0542   -2.6750    0.0000 C   0  0  0  0  0  0  0  0  0  0  0  0
    3.2667   -4.0042    0.0000 C   0  0  0  0  0  0  0  0  0  0  0  0
    2.6292   -2.4625    0.0000 O   0  0  0  0  0  0  0  0  0  0  0  0
    2.6792   -4.1292    0.0000 C   0  0  0  0  0  0  0  0  0  0  0  0
    3.4417   -3.4292    0.0000 C   0  0  0  0  0  0  0  0  0  0  0  0
    2.4625   -3.1167    0.0000 C   0  0  0  0  0  0  0  0  0  0  0  0
    3.6667   -1.4292    0.0000 C   0  0  0  0  0  0  0  0  0  0  0  0
    3.6667   -2.4625    0.0000 O   0  0  0  0  0  0  0  0  0  0  0  0
    1.1042   -1.1375    0.0000 C   0  0  0  0  0  0  0  0  0  0  0  0
    3.0417   -2.9917    0.0000 C   0  0  0  0  0  0  0  0  0  0  0  0
    2.2750   -3.6917    0.0000 C   0  0  0  0  0  0  0  0  0  0  0  0
    3.1417   -0.5292    0.0000 C   0  0  0  0  0  0  0  0  0  0  0  0
    4.6542   -4.7625    0.0000 C   0  0  0  0  0  0  0  0  0  0  0  0
    3.4792   -5.0167    0.0000 C   0  0  0  0  0  0  0  0  0  0  0  0
    3.6667   -0.8292    0.0000 C   0  0  0  0  0  0  0  0  0  0  0  0
    4.0875   -2.0375    0.0000 C   0  0  0  0  0  0  0  0  0  0  0  0
    0.8042   -0.6167    0.0000 C   0  0  0  0  0  0  0  0  0  0  0  0
    0.2042   -0.6167    0.0000 C   0  0  0  0  0  0  0  0  0  0  0  0
    3.8875   -5.4625    0.0000 C   0  0  0  0  0  0  0  0  0  0  0  0
    4.4750   -5.3375    0.0000 C   0  0  0  0  0  0  0  0  0  0  0  0
   -0.1000   -0.1042    0.0000 C   0  0  0  0  0  0  0  0  0  0  0  0
  2  1  1  0
  3  4  2  0
  4  1  1  0
  5 12  1  0
  6  2  1  0
  7  8  2  0
  8  5  1  0
  9 11  1  0
 10  2  2  0
 11  5  2  0
 12 14  1  0
 13  6  1  0
 14 16  1  0
 15  1  1  0
 16 18  2  0
 17 13  2  0
 18 25  1  0
 19 24  2  0
 20 15  1  0
 21  6  2  0
 22 13  1  0
 23  4  1  0
 24 20  1  0
 25 20  2  0
 26 10  1  0
 27 12  2  0
 28 14  2  0
 29 26  2  0
 30 22  1  0
 31 23  1  0
 32 31  1  0
 33 28  1  0
 34 33  2  0
 35 32  1  0
 10  3  1  0
 19 16  1  0
 21 29  1  0
 27 34  1  0
  9  7  1  0
M  END
>  <From>  (1) 
www.bindingDB.org

>  <BindingDB Reactant_set_id>  (1) 
51185893

>  <Ligand InChI>  (1) 
InChI=1S/C27H26N6O2/c1-3-4-12-24-28-23-11-7-10-22(27(34)35-2)25(23)33(24)17-18-13-15-19(16-14-18)20-8-5-6-9-21(20)26-29-31-32-30-26/h5-11,13-16H,3-4,12,17H2,1-2H3,(H,29,30,31,32)

>  <Ligand InChI Key>  (1) 
ZZAUQTZQTOCGDC-UHFFFAOYSA-N

>  <BindingDB MonomerID>  (1) 
50487631

>  <BindingDB Ligand Name>  (1) 
CHEMBL299597

>  <Target Name>  (1) 
Type-1 angiotensin II receptor

>  <Target Source Organism According to Curator or DataSource>  (1) 
Bos taurus

>  <Ki (nM)>  (1) 


>  <IC50 (nM)>  (1) 
 320

>  <Kd (nM)>  (1) 


>  <EC50 (nM)>  (1) 


>  <kon (M-1-s-1)>  (1) 


>  <koff (s-1)>  (1) 


>  <pH>  (1) 


>  <Temp C>  (1) 


>  <Curation/DataSource>  (1) 
ChEMBL

>  <Article DOI>  (1) 
10.1007/s00044-009-9182-z

>  <BindingDB Entry DOI>  (1) 
10.7270/Q2RN3BR4

>  <PMID>  (1) 


>  <PubChem AID>  (1) 


>  <Patent Number>  (1) 


>  <Authors>  (1) 
n/a

>  <Institution>  (1) 
n/a

>  <Link to Ligand in BindingDB>  (1) 
http://www.bindingdb.org/bind/chemsearch/marvin/MolStructure.jsp?monomerid=50487631

>  <Link to Ligand-Target Pair in BindingDB>  (1) 
http://www.bindingdb.org/jsp/dbsearch/PrimarySearch_ki.jsp?energyterm=kJ/mole&tag=r21&monomerid=50487631&enzyme=Type-1+angiotensin+II+receptor&column=ki&startPg=0&Increment=50&submit=Search

>  <Ligand HET ID in PDB>  (1) 


>  <PDB ID(s) for Ligand-Target Complex>  (1) 


>  <PubChem CID of Ligand>  (1) 
14962909

>  <PubChem SID of Ligand>  (1) 
433954896

>  <ChEBI ID of Ligand>  (1) 


>  <ChEMBL ID of Ligand>  (1) 


>  <DrugBank ID of Ligand>  (1) 


>  <IUPHAR_GRAC ID of Ligand>  (1) 


>  <KEGG ID of Ligand>  (1) 


>  <ZINC ID of Ligand>  (1) 


>  <Number of Protein Chains in Target (bigger than 1 implies a multichain complex)>  (1) 
1

>  <BindingDB Target Chain Sequence>  (1) 
MILNSSTEDGIKRIQDDCPKAGRHNYIFIMIPTLYSIIFVVGIFGNSLVVIVIYFYMKLKTVASVFLLNLALADLCFLLTLPLWAVYTAMEYRWPFGNYLCKIASASVSFNLYASVFLLTCLSIDRYLAIVHPMKSRLRRTMLVAKVTCIIIWLLAGLASLPTIIHRNVFFIENTNITVCAFHYESQNSTLPVGLGLTKNILGFLFPFLIILTSYTLIWKTLKKAYEIQKNKPRKDDIFKIILAIVLFFFFSWVPHQIFTFMDVLIQLGLIRDCKIEDIVDTAMPITICLAYFNNCLNPLFYGFLGKKFKKYFLQLLKYIPPKAKSHSNLSTKMSTLSYRPSENGNSSTKKPAPCIEVE

>  <PDB ID(s) of Target Chain>  (1) 


>  <UniProt (SwissProt) Recommended Name of Target Chain>  (1) 
Type-1 angiotensin II receptor

>  <UniProt (SwissProt) Entry Name of Target Chain>  (1) 
AGTR1_BOVIN

>  <UniProt (SwissProt) Primary ID of Target Chain>  (1) 
P25104

>  <UniProt (SwissProt) Secondary ID(s) of Target Chain>  (1) 


>  <UniProt (SwissProt) Alternative ID(s) of Target Chain>  (1) 


>  <UniProt (TrEMBL) Submitted Name of Target Chain>  (1) 


>  <UniProt (TrEMBL) Entry Name of Target Chain>  (1) 


>  <UniProt (TrEMBL) Primary ID of Target Chain>  (1) 


>  <UniProt (TrEMBL) Secondary ID(s) of Target Chain>  (1) 


>  <UniProt (TrEMBL) Alternative ID(s) of Target Chain>  (1) 


$$$$
