
     RDKit          2D

 47 51  0  0  0  0  0  0  0  0999 V2000
    6.6792   -2.9042    0.0000 S   0  0  0  0  0  0  0  0  0  0  0  0
    2.4042   -2.9000    0.0000 N   0  0  0  0  0  0  0  0  0  0  0  0
    1.6792   -2.4792    0.0000 C   0  0  0  0  0  0  0  0  0  0  0  0
    0.9667   -2.9000    0.0000 C   0  0  0  0  0  0  0  0  0  0  0  0
    2.4042   -3.7292    0.0000 C   0  0  0  0  0  0  0  0  0  0  0  0
    1.6792   -4.1417    0.0000 N   0  0  0  0  0  0  0  0  0  0  0  0
    6.6750   -2.0792    0.0000 N   0  0  0  0  0  0  0  0  0  0  0  0
    8.1042   -0.4292    0.0000 C   0  0  0  0  0  0  0  0  0  0  0  0
    7.3917   -1.6667    0.0000 C   0  0  0  0  0  0  0  0  0  0  0  0
    0.9625   -3.7292    0.0000 C   0  0  0  0  0  0  0  0  0  0  0  0
    7.3875   -0.8417    0.0000 O   0  0  0  0  0  0  0  0  0  0  0  0
    6.6792   -3.7292    0.0000 C   0  0  0  0  0  0  0  0  0  0  0  0
    5.9667   -4.1417    0.0000 C   0  0  0  0  0  0  0  0  0  0  0  0
   -1.8958   -2.9042    0.0000 C   0  0  0  0  0  0  0  0  0  0  0  0
    8.8542   -0.7667    0.0000 C   0  0  0  0  0  0  0  0  0  0  0  0
    7.5042   -2.9042    0.0000 O   0  0  0  0  0  0  0  0  0  0  0  0
    5.8542   -2.9042    0.0000 O   0  0  0  0  0  0  0  0  0  0  0  0
    3.1167   -2.4917    0.0000 C   0  0  0  0  0  0  0  0  0  0  0  0
    8.1875    0.3958    0.0000 O   0  0  0  0  0  0  0  0  0  0  0  0
    0.2500   -2.4875    0.0000 C   0  0  0  0  0  0  0  0  0  0  0  0
   -1.1750   -2.4917    0.0000 N   0  0  0  0  0  0  0  0  0  0  0  0
    1.6792   -1.6542    0.0000 O   0  0  0  0  0  0  0  0  0  0  0  0
    8.9917    0.5625    0.0000 C   0  0  0  0  0  0  0  0  0  0  0  0
    5.2542   -3.7292    0.0000 C   0  0  0  0  0  0  0  0  0  0  0  0
    9.4042   -0.1500    0.0000 C   0  0  0  0  0  0  0  0  0  0  0  0
    8.1042   -2.0792    0.0000 O   0  0  0  0  0  0  0  0  0  0  0  0
   -0.4625   -2.9000    0.0000 C   0  0  0  0  0  0  0  0  0  0  0  0
   -1.8958   -3.7292    0.0000 O   0  0  0  0  0  0  0  0  0  0  0  0
    0.2500   -4.1417    0.0000 C   0  0  0  0  0  0  0  0  0  0  0  0
   -2.6083   -2.4917    0.0000 N   0  0  0  0  0  0  0  0  0  0  0  0
    4.5375   -4.1417    0.0000 C   0  0  0  0  0  0  0  0  0  0  0  0
    5.2542   -2.9042    0.0000 C   0  0  0  0  0  0  0  0  0  0  0  0
    3.8292   -2.9042    0.0000 C   0  0  0  0  0  0  0  0  0  0  0  0
   -0.4625   -3.7292    0.0000 C   0  0  0  0  0  0  0  0  0  0  0  0
    3.1167   -4.1500    0.0000 C   0  0  0  0  0  0  0  0  0  0  0  0
    4.5417   -2.4917    0.0000 C   0  0  0  0  0  0  0  0  0  0  0  0
    3.8250   -3.7292    0.0000 C   0  0  0  0  0  0  0  0  0  0  0  0
    7.3917   -4.1417    0.0000 C   0  0  0  0  0  0  0  0  0  0  0  0
    5.9667   -4.9667    0.0000 C   0  0  0  0  0  0  0  0  0  0  0  0
    9.0292   -1.5667    0.0000 C   0  0  0  0  0  0  0  0  0  0  0  0
   -3.3125   -2.9042    0.0000 C   0  0  0  0  0  0  0  0  0  0  0  0
    3.1167   -4.9750    0.0000 C   0  0  0  0  0  0  0  0  0  0  0  0
    3.8292   -5.3875    0.0000 C   0  0  0  0  0  0  0  0  0  0  0  0
    7.3917   -4.9667    0.0000 C   0  0  0  0  0  0  0  0  0  0  0  0
    6.6792   -5.3792    0.0000 C   0  0  0  0  0  0  0  0  0  0  0  0
   -4.0333   -2.4917    0.0000 C   0  0  0  0  0  0  0  0  0  0  0  0
    3.8250   -6.2125    0.0000 C   0  0  0  0  0  0  0  0  0  0  0  0
  2 18  1  0
  3  2  1  0
  4  3  1  0
  5  2  1  0
  6  5  2  0
  7  1  1  0
  8 11  1  0
  9  7  1  0
 10  6  1  0
 11  9  1  0
 12  1  1  0
 13 12  1  0
 14 21  1  0
 15  8  2  0
 16  1  2  0
 17  1  2  0
 18 33  1  0
 19  8  1  0
 20  4  2  0
 21 27  1  0
 22  3  2  0
 23 19  1  0
 24 13  1  0
 25 15  1  0
 26  9  2  0
 27 20  1  0
 28 14  2  0
 29 10  2  0
 30 14  1  0
 31 24  2  0
 32 24  1  0
 33 36  1  0
 34 29  1  0
 35  5  1  0
 36 32  2  0
 37 31  1  0
 38 12  2  0
 39 13  2  0
 40 15  1  0
 41 30  1  0
 42 35  1  0
 43 42  1  0
 44 38  1  0
 45 44  2  0
 46 41  1  0
 47 43  1  0
 39 45  1  0
 33 37  2  0
 25 23  2  0
  4 10  1  0
 27 34  2  0
M  END
>  <From>  (1) 
www.bindingDB.org

>  <BindingDB Reactant_set_id>  (1) 
50002797

>  <Ligand InChI>  (1) 
InChI=1S/C34H35N5O7S/c1-4-6-11-30-37-28-17-16-25(36-33(41)35-5-2)20-27(28)31(40)39(30)21-23-12-14-24(15-13-23)26-9-7-8-10-29(26)47(43,44)38-34(42)46-32-22(3)18-19-45-32/h7-10,12-20H,4-6,11,21H2,1-3H3,(H,38,42)(H2,35,36,41)

>  <Ligand InChI Key>  (1) 
QLPIRZGDTSKSCA-UHFFFAOYSA-N

>  <BindingDB MonomerID>  (1) 
50282473

>  <BindingDB Ligand Name>  (1) 
CHEMBL354298::Quinazolinone Analog

>  <Target Name>  (1) 
Type-1 angiotensin II receptor

>  <Target Source Organism According to Curator or DataSource>  (1) 
Oryctolagus cuniculus

>  <Ki (nM)>  (1) 


>  <IC50 (nM)>  (1) 
 1.1

>  <Kd (nM)>  (1) 


>  <EC50 (nM)>  (1) 


>  <kon (M-1-s-1)>  (1) 


>  <koff (s-1)>  (1) 


>  <pH>  (1) 


>  <Temp C>  (1) 


>  <Curation/DataSource>  (1) 
ChEMBL

>  <Article DOI>  (1) 
10.1016/S0960-894X(01)81126-4

>  <BindingDB Entry DOI>  (1) 
10.7270/Q2D79BBS

>  <PMID>  (1) 


>  <PubChem AID>  (1) 


>  <Patent Number>  (1) 


>  <Authors>  (1) 
Glinka, TW; de Laszlo, SE; Siegl, PK; Chang, RS; Kivlighn, SD; Schorn, TS; Faust, KA; Chen, TB; Zingaro, GJ; Lotti, VJ; Greenlee, WJ

>  <Institution>  (1) 
TBA

>  <Link to Ligand in BindingDB>  (1) 
http://www.bindingdb.org/bind/chemsearch/marvin/MolStructure.jsp?monomerid=50282473

>  <Link to Ligand-Target Pair in BindingDB>  (1) 
http://www.bindingdb.org/jsp/dbsearch/PrimarySearch_ki.jsp?energyterm=kJ/mole&tag=r21&monomerid=50282473&enzyme=Type-1+angiotensin+II+receptor&column=ki&startPg=0&Increment=50&submit=Search

>  <Ligand HET ID in PDB>  (1) 


>  <PDB ID(s) for Ligand-Target Complex>  (1) 


>  <PubChem CID of Ligand>  (1) 
44381670

>  <PubChem SID of Ligand>  (1) 
104124147

>  <ChEBI ID of Ligand>  (1) 


>  <ChEMBL ID of Ligand>  (1) 
CHEMBL354298

>  <DrugBank ID of Ligand>  (1) 


>  <IUPHAR_GRAC ID of Ligand>  (1) 


>  <KEGG ID of Ligand>  (1) 


>  <ZINC ID of Ligand>  (1) 
ZINC27981157

>  <Number of Protein Chains in Target (bigger than 1 implies a multichain complex)>  (1) 
1

>  <BindingDB Target Chain Sequence>  (1) 
MMLNSSTEDGIKRIQDDCPKAGRHNYIFVMIPTLYSIIFVVGIFGNSLAVIVIYFYMKLKTVASVFLLNLALADLCFLLTLPLWAVYTAMEYRWPFGNYLCKIASASVSFNLYASVFLLTCLSIDRYLAIVHPMKSRLRRTMLVAKVTCIIIWLLAGLASLPAIIHRNVFFIENTNITVCAFHYESQNSTLPIGLGLTKNILGFLFPFLIILTSYTLIWKALKKAYEIQKNKPRNDDIFKIIMAIVLFFFFSWVPHQIFTFLDVLIQLGVIHDCRIADIVDTAMPITICIAYFNNCLNPLFYGFLGKKFKKYFLQLLKYIPPKAKSHSNLSTKMSTLSYRPSDNVSSSSKKPVPCFEVE

>  <PDB ID(s) of Target Chain>  (1) 
6DO1,6OS0,6OS1,6OS2

>  <UniProt (SwissProt) Recommended Name of Target Chain>  (1) 
Type-1 angiotensin II receptor

>  <UniProt (SwissProt) Entry Name of Target Chain>  (1) 
AGTR1_RABIT

>  <UniProt (SwissProt) Primary ID of Target Chain>  (1) 
P34976

>  <UniProt (SwissProt) Secondary ID(s) of Target Chain>  (1) 


>  <UniProt (SwissProt) Alternative ID(s) of Target Chain>  (1) 


>  <UniProt (TrEMBL) Submitted Name of Target Chain>  (1) 


>  <UniProt (TrEMBL) Entry Name of Target Chain>  (1) 


>  <UniProt (TrEMBL) Primary ID of Target Chain>  (1) 


>  <UniProt (TrEMBL) Secondary ID(s) of Target Chain>  (1) 


>  <UniProt (TrEMBL) Alternative ID(s) of Target Chain>  (1) 


$$$$
