
     RDKit          2D

 47 52  0  0  0  0  0  0  0  0999 V2000
    4.9924   -6.2550    0.0000 N   0  0  0  0  0  0  0  0  0  0  0  0
    5.6383   -5.7383    0.0000 C   0  0  0  0  0  0  0  0  0  0  0  0
    5.3424   -4.9674    0.0000 C   0  0  0  0  0  0  0  0  0  0  0  0
    4.5173   -5.0049    0.0000 N   0  0  0  0  0  0  0  0  0  0  0  0
    4.3048   -5.8050    0.0000 C   0  0  0  0  0  0  0  0  0  0  0  0
    8.6054   -7.3135    0.0000 C   0  0  0  0  0  0  0  0  0  0  0  0
    8.1303   -6.0675    0.0000 N   0  0  0  0  0  0  0  0  0  0  0  0
    4.6048   -3.4922    0.0000 C   0  0  0  0  0  0  0  0  0  0  0  0
    7.9136   -6.8634    0.0000 N   0  0  0  0  0  0  0  0  0  0  0  0
    8.9512   -6.0258    0.0000 N   0  0  0  0  0  0  0  0  0  0  0  0
    5.4257   -3.5422    0.0000 N   0  0  0  0  0  0  0  0  0  0  0  0
    9.2429   -6.7926    0.0000 N   0  0  0  0  0  0  0  0  0  0  0  0
    6.4301   -5.9550    0.0000 C   0  0  0  0  0  0  0  0  0  0  0  0
    8.6554   -8.1303    0.0000 C   0  0  0  0  0  0  0  0  0  0  0  0
    5.7925   -4.2756    0.0000 C   0  0  0  0  0  0  0  0  0  0  0  0
    7.9636   -8.5803    0.0000 C   0  0  0  0  0  0  0  0  0  0  0  0
    4.2298   -2.7546    0.0000 N   0  0  0  0  0  0  0  0  0  0  0  0
    5.0299   -7.0801    0.0000 C   0  0  0  0  0  0  0  0  0  0  0  0
    7.2302   -8.2053    0.0000 C   0  0  0  0  0  0  0  0  0  0  0  0
    4.1506   -4.1798    0.0000 O   0  0  0  0  0  0  0  0  0  0  0  0
    5.8800   -2.8504    0.0000 C   0  0  0  0  0  0  0  0  0  0  0  0
    6.4301   -6.5051    0.0000 O   0  0  0  0  0  0  0  0  0  0  0  0
    6.5384   -8.6554    0.0000 C   0  0  0  0  0  0  0  0  0  0  0  0
    7.1927   -7.3802    0.0000 C   0  0  0  0  0  0  0  0  0  0  0  0
    5.7675   -7.4552    0.0000 C   0  0  0  0  0  0  0  0  0  0  0  0
    3.4047   -2.7129    0.0000 C   0  0  0  0  0  0  0  0  0  0  0  0
    7.0176   -5.3757    0.0000 O   0  0  0  0  0  0  0  0  0  0  0  0
    3.5297   -6.0925    0.0000 C   0  0  0  0  0  0  0  0  0  0  0  0
    6.7009   -2.8921    0.0000 C   0  0  0  0  0  0  0  0  0  0  0  0
    6.4551   -7.0051    0.0000 C   0  0  0  0  0  0  0  0  0  0  0  0
    5.8050   -8.2803    0.0000 C   0  0  0  0  0  0  0  0  0  0  0  0
    9.3888   -8.5053    0.0000 C   0  0  0  0  0  0  0  0  0  0  0  0
    8.0053   -9.4055    0.0000 C   0  0  0  0  0  0  0  0  0  0  0  0
    2.9546   -3.3922    0.0000 C   0  0  0  0  0  0  0  0  0  0  0  0
    3.0379   -1.9670    0.0000 C   0  0  0  0  0  0  0  0  0  0  0  0
    7.0676   -3.6297    0.0000 C   0  0  0  0  0  0  0  0  0  0  0  0
    7.1510   -2.2045    0.0000 C   0  0  0  0  0  0  0  0  0  0  0  0
    2.8921   -5.5757    0.0000 C   0  0  0  0  0  0  0  0  0  0  0  0
    9.4305   -9.3388    0.0000 C   0  0  0  0  0  0  0  0  0  0  0  0
    8.7387   -9.7805    0.0000 C   0  0  0  0  0  0  0  0  0  0  0  0
    2.1253   -5.8675    0.0000 C   0  0  0  0  0  0  0  0  0  0  0  0
    2.2170   -1.9253    0.0000 C   0  0  0  0  0  0  0  0  0  0  0  0
    7.8928   -3.6797    0.0000 C   0  0  0  0  0  0  0  0  0  0  0  0
    7.9678   -2.2503    0.0000 C   0  0  0  0  0  0  0  0  0  0  0  0
    2.1295   -3.3546    0.0000 C   0  0  0  0  0  0  0  0  0  0  0  0
    1.7627   -2.6171    0.0000 C   0  0  0  0  0  0  0  0  0  0  0  0
    8.3428   -2.9879    0.0000 C   0  0  0  0  0  0  0  0  0  0  0  0
  2  1  1  0
  3  2  2  0
  4  5  2  0
  5  1  1  0
  6 14  1  0
  7  9  1  0
  8 11  1  0
  9  6  1  0
 10 12  1  0
 11 15  1  0
 12  6  2  0
 13  2  1  0
 14 16  1  0
 15  3  1  0
 16 19  1  0
 17  8  1  0
 18  1  1  0
 19 23  2  0
 20  8  2  0
 21 11  1  0
 22 13  2  0
 23 31  1  0
 24 30  2  0
 25 18  1  0
 26 17  1  0
 27 13  1  0
 28  5  1  0
 29 21  1  0
 30 25  1  0
 31 25  2  0
 32 14  2  0
 33 16  2  0
 34 26  2  0
 35 26  1  0
 36 29  2  0
 37 29  1  0
 38 28  1  0
 39 40  2  0
 40 33  1  0
 41 38  1  0
 42 35  2  0
 43 36  1  0
 44 37  2  0
 45 34  1  0
 46 42  1  0
 47 44  1  0
  4  3  1  0
 19 24  1  0
 32 39  1  0
 47 43  2  0
  7 10  2  0
 46 45  2  0
M  END
>  <From>  (1) 
www.bindingDB.org

>  <BindingDB Reactant_set_id>  (1) 
50469025

>  <Ligand InChI>  (1) 
InChI=1S/C36H34N8O3/c1-2-11-32-38-31(24-43(22-25-12-5-3-6-13-25)36(47)37-28-14-7-4-8-15-28)33(35(45)46)44(32)23-26-18-20-27(21-19-26)29-16-9-10-17-30(29)34-39-41-42-40-34/h3-10,12-21H,2,11,22-24H2,1H3,(H,37,47)(H,45,46)(H,39,40,41,42)

>  <Ligand InChI Key>  (1) 
PGFOMEGDVXUBCE-UHFFFAOYSA-N

>  <BindingDB MonomerID>  (1) 
50283176

>  <BindingDB Ligand Name>  (1) 
5-(1-Benzyl-3-phenyl-ureidomethyl)-2-propyl-3-[2'-(1H-tetrazol-5-yl)-biphenyl-4-ylmethyl]-3H-imidazole-4-carboxylic acid::CHEMBL73780

>  <Target Name>  (1) 
Type-1 angiotensin II receptor

>  <Target Source Organism According to Curator or DataSource>  (1) 
Homo sapiens

>  <Ki (nM)>  (1) 


>  <IC50 (nM)>  (1) 
 2

>  <Kd (nM)>  (1) 


>  <EC50 (nM)>  (1) 


>  <kon (M-1-s-1)>  (1) 


>  <koff (s-1)>  (1) 


>  <pH>  (1) 


>  <Temp C>  (1) 


>  <Curation/DataSource>  (1) 
ChEMBL

>  <Article DOI>  (1) 
10.1016/S0960-894X(00)80076-1

>  <BindingDB Entry DOI>  (1) 
10.7270/Q2JQ110M

>  <PMID>  (1) 


>  <PubChem AID>  (1) 


>  <Patent Number>  (1) 


>  <Authors>  (1) 
Olson, RE; Liu, J; Lalka, GK; VanAtten, MK; Wexler, RR; Chiu, AT; Nguyen, TT; McCall, DE; Wong, PC; Timmermans, PB

>  <Institution>  (1) 
TBA

>  <Link to Ligand in BindingDB>  (1) 
http://www.bindingdb.org/bind/chemsearch/marvin/MolStructure.jsp?monomerid=50283176

>  <Link to Ligand-Target Pair in BindingDB>  (1) 
http://www.bindingdb.org/jsp/dbsearch/PrimarySearch_ki.jsp?energyterm=kJ/mole&tag=r21&monomerid=50283176&enzyme=Type-1+angiotensin+II+receptor&column=ki&startPg=0&Increment=50&submit=Search

>  <Ligand HET ID in PDB>  (1) 


>  <PDB ID(s) for Ligand-Target Complex>  (1) 


>  <PubChem CID of Ligand>  (1) 
44311758

>  <PubChem SID of Ligand>  (1) 
104124850

>  <ChEBI ID of Ligand>  (1) 


>  <ChEMBL ID of Ligand>  (1) 
CHEMBL73780

>  <DrugBank ID of Ligand>  (1) 


>  <IUPHAR_GRAC ID of Ligand>  (1) 


>  <KEGG ID of Ligand>  (1) 


>  <ZINC ID of Ligand>  (1) 
ZINC26379445

>  <Number of Protein Chains in Target (bigger than 1 implies a multichain complex)>  (1) 
1

>  <BindingDB Target Chain Sequence>  (1) 
MILNSSTEDGIKRIQDDCPKAGRHNYIFVMIPTLYSIIFVVGIFGNSLVVIVIYFYMKLKTVASVFLLNLALADLCFLLTLPLWAVYTAMEYRWPFGNYLCKIASASVSFNLYASVFLLTCLSIDRYLAIVHPMKSRLRRTMLVAKVTCIIIWLLAGLASLPAIIHRNVFFIENTNITVCAFHYESQNSTLPIGLGLTKNILGFLFPFLIILTSYTLIWKALKKAYEIQKNKPRNDDIFKIIMAIVLFFFFSWIPHQIFTFLDVLIQLGIIRDCRIADIVDTAMPITICIAYFNNCLNPLFYGFLGKKFKRYFLQLLKYIPPKAKSHSNLSTKMSTLSYRPSDNVSSSTKKPAPCFEVE

>  <PDB ID(s) of Target Chain>  (1) 
6DO1,6OS0,6OS1,6OS2

>  <UniProt (SwissProt) Recommended Name of Target Chain>  (1) 
Type-1 angiotensin II receptor

>  <UniProt (SwissProt) Entry Name of Target Chain>  (1) 
AGTR1_HUMAN

>  <UniProt (SwissProt) Primary ID of Target Chain>  (1) 
P30556

>  <UniProt (SwissProt) Secondary ID(s) of Target Chain>  (1) 
Q13725 Q8TBK4

>  <UniProt (SwissProt) Alternative ID(s) of Target Chain>  (1) 


>  <UniProt (TrEMBL) Submitted Name of Target Chain>  (1) 


>  <UniProt (TrEMBL) Entry Name of Target Chain>  (1) 


>  <UniProt (TrEMBL) Primary ID of Target Chain>  (1) 


>  <UniProt (TrEMBL) Secondary ID(s) of Target Chain>  (1) 


>  <UniProt (TrEMBL) Alternative ID(s) of Target Chain>  (1) 


$$$$
