
     RDKit          2D

 35 39  0  0  0  0  0  0  0  0999 V2000
    7.2559   -6.5765    0.0000 C   0  0  0  0  0  0  0  0  0  0  0  0
    7.3434   -5.2137    0.0000 N   0  0  0  0  0  0  0  0  0  0  0  0
    6.7641   -5.8889    0.0000 N   0  0  0  0  0  0  0  0  0  0  0  0
    8.1561   -5.5888    0.0000 N   0  0  0  0  0  0  0  0  0  0  0  0
    8.0686   -6.4057    0.0000 N   0  0  0  0  0  0  0  0  0  0  0  0
    5.0554   -2.1172    0.0000 C   0  0  0  0  0  0  0  0  0  0  0  0
    6.6765   -7.1558    0.0000 C   0  0  0  0  0  0  0  0  0  0  0  0
    4.3385   -0.8794    0.0000 N   0  0  0  0  0  0  0  0  0  0  0  0
    4.3385   -2.5298    0.0000 C   0  0  0  0  0  0  0  0  0  0  0  0
    5.0554   -1.2920    0.0000 C   0  0  0  0  0  0  0  0  0  0  0  0
    5.8806   -6.9433    0.0000 C   0  0  0  0  0  0  0  0  0  0  0  0
    3.6300   -2.1172    0.0000 C   0  0  0  0  0  0  0  0  0  0  0  0
    3.6300   -1.2920    0.0000 C   0  0  0  0  0  0  0  0  0  0  0  0
    5.6805   -6.1556    0.0000 C   0  0  0  0  0  0  0  0  0  0  0  0
    4.3385   -3.3550    0.0000 O   0  0  0  0  0  0  0  0  0  0  0  0
    5.7555   -2.5298    0.0000 C   0  0  0  0  0  0  0  0  0  0  0  0
    5.7638   -0.8794    0.0000 C   0  0  0  0  0  0  0  0  0  0  0  0
    4.8803   -5.9389    0.0000 C   0  0  0  0  0  0  0  0  0  0  0  0
    6.2639   -5.5680    0.0000 C   0  0  0  0  0  0  0  0  0  0  0  0
    6.4682   -2.1172    0.0000 C   0  0  0  0  0  0  0  0  0  0  0  0
    5.0554   -3.7759    0.0000 C   0  0  0  0  0  0  0  0  0  0  0  0
    5.2679   -4.5635    0.0000 C   0  0  0  0  0  0  0  0  0  0  0  0
    6.4807   -1.2920    0.0000 C   0  0  0  0  0  0  0  0  0  0  0  0
    4.6761   -5.1429    0.0000 C   0  0  0  0  0  0  0  0  0  0  0  0
    6.0514   -4.7803    0.0000 C   0  0  0  0  0  0  0  0  0  0  0  0
    9.3396   -2.1547    0.0000 F   0  0  0  0  0  0  0  0  0  0  0  0
    6.9016   -7.9643    0.0000 C   0  0  0  0  0  0  0  0  0  0  0  0
    7.1934   -2.5423    0.0000 O   0  0  0  0  0  0  0  0  0  0  0  0
    5.3012   -7.5309    0.0000 C   0  0  0  0  0  0  0  0  0  0  0  0
    2.9132   -0.8794    0.0000 C   0  0  0  0  0  0  0  0  0  0  0  0
    8.6187   -2.5548    0.0000 C   0  0  0  0  0  0  0  0  0  0  0  0
    7.9060   -2.1422    0.0000 C   0  0  0  0  0  0  0  0  0  0  0  0
    2.9132   -0.0542    0.0000 C   0  0  0  0  0  0  0  0  0  0  0  0
    5.5055   -8.3311    0.0000 C   0  0  0  0  0  0  0  0  0  0  0  0
    6.3056   -8.5312    0.0000 C   0  0  0  0  0  0  0  0  0  0  0  0
  2  3  1  0
  3  1  1  0
  4  5  1  0
  5  1  2  0
  6  9  1  0
  7  1  1  0
  8 13  2  0
  9 15  1  0
 10  6  2  0
 11  7  1  0
 12  9  2  0
 13 12  1  0
 14 11  1  0
 15 21  1  0
 16  6  1  0
 17 10  1  0
 18 14  2  0
 19 14  1  0
 20 16  2  0
 21 22  1  0
 22 25  1  0
 23 20  1  0
 24 18  1  0
 25 19  2  0
 26 31  1  0
 27  7  2  0
 28 20  1  0
 29 11  2  0
 30 13  1  0
 31 32  1  0
 32 28  1  0
 33 30  1  0
 34 35  2  0
 35 27  1  0
  2  4  2  0
 34 29  1  0
 24 22  2  0
  8 10  1  0
 17 23  2  0
M  END
>  <From>  (1) 
www.bindingDB.org

>  <BindingDB Reactant_set_id>  (1) 
50005360

>  <Ligand InChI>  (1) 
InChI=1S/C27H24FN5O2/c1-2-20-15-26(24-16-21(34-14-13-28)11-12-25(24)29-20)35-17-18-7-9-19(10-8-18)22-5-3-4-6-23(22)27-30-32-33-31-27/h3-12,15-16H,2,13-14,17H2,1H3,(H,30,31,32,33)

>  <Ligand InChI Key>  (1) 
MKPLRVPHRDVIRY-UHFFFAOYSA-N

>  <BindingDB MonomerID>  (1) 
50003382

>  <BindingDB Ligand Name>  (1) 
2-Ethyl-6-(2-fluoro-ethoxy)-4-[2'-(1H-tetrazol-5-yl)-biphenyl-4-ylmethoxy]-quinoline::CHEMBL128389

>  <Target Name>  (1) 
Type-1 angiotensin II receptor

>  <Target Source Organism According to Curator or DataSource>  (1) 
Cavia porcellus

>  <Ki (nM)>  (1) 


>  <IC50 (nM)>  (1) 
 70

>  <Kd (nM)>  (1) 


>  <EC50 (nM)>  (1) 


>  <kon (M-1-s-1)>  (1) 


>  <koff (s-1)>  (1) 


>  <pH>  (1) 


>  <Temp C>  (1) 


>  <Curation/DataSource>  (1) 
ChEMBL

>  <Article DOI>  (1) 
10.1021/jm00100a007

>  <BindingDB Entry DOI>  (1) 
10.7270/Q2G44P8Q

>  <PMID>  (1) 
1433210

>  <PubChem AID>  (1) 


>  <Patent Number>  (1) 


>  <Authors>  (1) 
Bradbury, RH; Allott, CP; Dennis, M; Fisher, E; Major, JS; Masek, BB; Oldham, AA; Pearce, RJ; Rankine, N; Revill, JM

>  <Institution>  (1) 
ICI Pharmaceuticals Group

>  <Link to Ligand in BindingDB>  (1) 
http://www.bindingdb.org/bind/chemsearch/marvin/MolStructure.jsp?monomerid=50003382

>  <Link to Ligand-Target Pair in BindingDB>  (1) 
http://www.bindingdb.org/jsp/dbsearch/PrimarySearch_ki.jsp?energyterm=kJ/mole&tag=r21&monomerid=50003382&enzyme=Type-1+angiotensin+II+receptor&column=ki&startPg=0&Increment=50&submit=Search

>  <Ligand HET ID in PDB>  (1) 


>  <PDB ID(s) for Ligand-Target Complex>  (1) 


>  <PubChem CID of Ligand>  (1) 
10368898

>  <PubChem SID of Ligand>  (1) 
103917355

>  <ChEBI ID of Ligand>  (1) 


>  <ChEMBL ID of Ligand>  (1) 
CHEMBL128389

>  <DrugBank ID of Ligand>  (1) 


>  <IUPHAR_GRAC ID of Ligand>  (1) 


>  <KEGG ID of Ligand>  (1) 


>  <ZINC ID of Ligand>  (1) 
ZINC53186933

>  <Number of Protein Chains in Target (bigger than 1 implies a multichain complex)>  (1) 
1

>  <BindingDB Target Chain Sequence>  (1) 
MILNSSTEDGIKRIQDDCPKAGRHSYIFVMIPTLYSIIFVVGIFGNSLVVIVIYFYMKLKTVASVFLLNLALADICFLLTLPLWAVYTAMEYRWPFGNYLCKIASASVSFNLYASVFLLTCLSIDRYLAIVHPMKSRLRRTMLVAKVTCVIIWLMAGLASLPAVIHRNVFFIENTNITVCAFHYESQNSTLPIGLGLTKNILGFMFPFLIILTSYTLIWKALKKAYEIQKNKPRNDDIFKIIMAIVLFFFFSWVPHQIFTFLDVLIQLGIIHDCKISDIVDTAMPITICIAYFNNCLNPLFYGFLGKKFKKYFLQLLKYIPPKAKSHSTLSTKMSTLSYRPSDNVSSSAKKPVQCFEVE

>  <PDB ID(s) of Target Chain>  (1) 
4ZUD

>  <UniProt (SwissProt) Recommended Name of Target Chain>  (1) 
Type-1 angiotensin II receptor

>  <UniProt (SwissProt) Entry Name of Target Chain>  (1) 
AGTR1_CAVPO

>  <UniProt (SwissProt) Primary ID of Target Chain>  (1) 
Q9WV26

>  <UniProt (SwissProt) Secondary ID(s) of Target Chain>  (1) 


>  <UniProt (SwissProt) Alternative ID(s) of Target Chain>  (1) 


>  <UniProt (TrEMBL) Submitted Name of Target Chain>  (1) 


>  <UniProt (TrEMBL) Entry Name of Target Chain>  (1) 


>  <UniProt (TrEMBL) Primary ID of Target Chain>  (1) 


>  <UniProt (TrEMBL) Secondary ID(s) of Target Chain>  (1) 


>  <UniProt (TrEMBL) Alternative ID(s) of Target Chain>  (1) 


$$$$
