
     RDKit          2D

 53 57  0  0  0  0  0  0  0  0999 V2000
    7.3330   -6.0972    0.0000 S   0  0  0  0  0  0  0  0  0  0  0  0
    3.7698   -4.8458    0.0000 N   0  0  0  0  0  0  0  0  0  0  0  0
    4.4365   -4.3663    0.0000 C   0  0  0  0  0  0  0  0  0  0  0  0
    3.3605   -3.5827    0.0000 N   0  0  0  0  0  0  0  0  0  0  0  0
    4.1869   -3.5827    0.0000 C   0  0  0  0  0  0  0  0  0  0  0  0
    3.1032   -4.3663    0.0000 C   0  0  0  0  0  0  0  0  0  0  0  0
    8.0464   -5.6839    0.0000 N   0  0  0  0  0  0  0  0  0  0  0  0
    7.3330   -6.9236    0.0000 C   0  0  0  0  0  0  0  0  0  0  0  0
    3.7698   -5.6762    0.0000 C   0  0  0  0  0  0  0  0  0  0  0  0
    5.2200   -4.6236    0.0000 C   0  0  0  0  0  0  0  0  0  0  0  0
    8.7637   -6.0972    0.0000 C   0  0  0  0  0  0  0  0  0  0  0  0
    6.2804   -2.7289    0.0000 C   0  0  0  0  0  0  0  0  0  0  0  0
    4.4832   -6.0933    0.0000 C   0  0  0  0  0  0  0  0  0  0  0  0
    6.6196   -7.3330    0.0000 C   0  0  0  0  0  0  0  0  0  0  0  0
    5.9061   -6.9236    0.0000 C   0  0  0  0  0  0  0  0  0  0  0  0
    7.0679   -2.9823    0.0000 C   0  0  0  0  0  0  0  0  0  0  0  0
    4.4715   -6.9159    0.0000 C   0  0  0  0  0  0  0  0  0  0  0  0
    6.6118   -6.5065    0.0000 O   0  0  0  0  0  0  0  0  0  0  0  0
    6.7482   -5.5124    0.0000 O   0  0  0  0  0  0  0  0  0  0  0  0
    5.1850   -7.3330    0.0000 C   0  0  0  0  0  0  0  0  0  0  0  0
    5.8399   -4.0739    0.0000 O   0  0  0  0  0  0  0  0  0  0  0  0
    7.2394   -3.7815    0.0000 C   0  0  0  0  0  0  0  0  0  0  0  0
    5.6645   -3.2786    0.0000 O   0  0  0  0  0  0  0  0  0  0  0  0
    8.7637   -6.9236    0.0000 O   0  0  0  0  0  0  0  0  0  0  0  0
    5.1927   -5.6762    0.0000 C   0  0  0  0  0  0  0  0  0  0  0  0
    5.3604   -5.2083    0.0000 O   0  0  0  0  0  0  0  0  0  0  0  0
    5.9061   -6.0933    0.0000 C   0  0  0  0  0  0  0  0  0  0  0  0
    6.1089   -1.9180    0.0000 C   0  0  0  0  0  0  0  0  0  0  0  0
    9.4771   -5.6839    0.0000 O   0  0  0  0  0  0  0  0  0  0  0  0
    6.6235   -4.3312    0.0000 C   0  0  0  0  0  0  0  0  0  0  0  0
    3.7581   -7.3252    0.0000 F   0  0  0  0  0  0  0  0  0  0  0  0
    4.6704   -2.9161    0.0000 C   0  0  0  0  0  0  0  0  0  0  0  0
    2.3196   -4.6197    0.0000 C   0  0  0  0  0  0  0  0  0  0  0  0
   10.1906   -6.0933    0.0000 C   0  0  0  0  0  0  0  0  0  0  0  0
    8.0464   -7.3330    0.0000 C   0  0  0  0  0  0  0  0  0  0  0  0
    6.6118   -8.1633    0.0000 C   0  0  0  0  0  0  0  0  0  0  0  0
    7.6761   -2.4326    0.0000 C   0  0  0  0  0  0  0  0  0  0  0  0
    8.0230   -4.0388    0.0000 C   0  0  0  0  0  0  0  0  0  0  0  0
    5.3253   -1.6724    0.0000 C   0  0  0  0  0  0  0  0  0  0  0  0
    6.7248   -1.3723    0.0000 C   0  0  0  0  0  0  0  0  0  0  0  0
   10.9117   -5.6762    0.0000 C   0  0  0  0  0  0  0  0  0  0  0  0
    1.7075   -4.0622    0.0000 C   0  0  0  0  0  0  0  0  0  0  0  0
    4.3390   -2.1636    0.0000 C   0  0  0  0  0  0  0  0  0  0  0  0
   11.6252   -6.0933    0.0000 C   0  0  0  0  0  0  0  0  0  0  0  0
   10.9117   -4.8536    0.0000 C   0  0  0  0  0  0  0  0  0  0  0  0
    8.4713   -2.6822    0.0000 C   0  0  0  0  0  0  0  0  0  0  0  0
    7.3330   -8.5766    0.0000 C   0  0  0  0  0  0  0  0  0  0  0  0
    8.0503   -8.1633    0.0000 C   0  0  0  0  0  0  0  0  0  0  0  0
    0.9239   -4.3156    0.0000 C   0  0  0  0  0  0  0  0  0  0  0  0
    5.1499   -0.8694    0.0000 C   0  0  0  0  0  0  0  0  0  0  0  0
    8.6351   -3.4969    0.0000 C   0  0  0  0  0  0  0  0  0  0  0  0
    6.5533   -0.5653    0.0000 C   0  0  0  0  0  0  0  0  0  0  0  0
    5.7658   -0.3080    0.0000 C   0  0  0  0  0  0  0  0  0  0  0  0
  2  9  1  0
  3  2  1  0
  4  6  2  0
  5  3  2  0
  6  2  1  0
  7  1  1  0
  8  1  1  0
  9 13  1  0
 10  3  1  0
 11  7  1  0
 12 16  1  0
 13 25  2  0
 14  8  2  0
 15 14  1  0
 16 22  1  0
 17 20  2  0
 18  1  2  0
 19  1  2  0
 20 15  1  0
 21 10  1  0
 22 30  1  0
 23 12  2  0
 24 11  2  0
 25 27  1  0
 26 10  2  0
 27 15  2  0
 28 12  1  0
 29 11  1  0
 30 21  1  0
 31 17  1  0
 32  5  1  0
 33  6  1  0
 34 29  1  0
 35  8  1  0
 36 14  1  0
 37 16  2  0
 38 22  2  0
 39 28  2  0
 40 28  1  0
 41 34  1  0
 42 33  1  0
 43 32  1  0
 44 41  1  0
 45 41  1  0
 46 51  2  0
 47 48  1  0
 48 35  2  0
 49 42  1  0
 50 39  1  0
 51 38  1  0
 52 40  2  0
 53 52  1  0
 47 36  2  0
 17 13  1  0
  4  5  1  0
 46 37  1  0
 53 50  2  0
M  END
>  <From>  (1) 
www.bindingDB.org

>  <BindingDB Reactant_set_id>  (1) 
50469124

>  <Ligand InChI>  (1) 
InChI=1S/C41H42FN3O7S/c1-5-14-37-43-35(6-2)38(40(47)51-26-31-17-10-11-19-33(31)39(46)28-15-8-7-9-16-28)45(37)24-30-22-21-29(23-34(30)42)32-18-12-13-20-36(32)53(49,50)44-41(48)52-25-27(3)4/h7-13,15-23,27H,5-6,14,24-26H2,1-4H3,(H,44,48)

>  <Ligand InChI Key>  (1) 
RQADEKNPQZFEDJ-UHFFFAOYSA-N

>  <BindingDB MonomerID>  (1) 
50283234

>  <BindingDB Ligand Name>  (1) 
Biphenylsulfonylcarbamate compound::CHEMBL72595

>  <Target Name>  (1) 
Type-1 angiotensin II receptor

>  <Target Source Organism According to Curator or DataSource>  (1) 
Homo sapiens

>  <Ki (nM)>  (1) 


>  <IC50 (nM)>  (1) 
 0.500000

>  <Kd (nM)>  (1) 


>  <EC50 (nM)>  (1) 


>  <kon (M-1-s-1)>  (1) 


>  <koff (s-1)>  (1) 


>  <pH>  (1) 


>  <Temp C>  (1) 


>  <Curation/DataSource>  (1) 
ChEMBL

>  <Article DOI>  (1) 
10.1016/S0960-894X(00)80077-3

>  <BindingDB Entry DOI>  (1) 
10.7270/Q2DZ088W

>  <PMID>  (1) 


>  <PubChem AID>  (1) 


>  <Patent Number>  (1) 


>  <Authors>  (1) 
Santella, JB; Duncia, JV; Ensinger, CL; VanAtten, MK; Carini, DJ; Wexler, RR; Chiu, AT; Wong, PC; Timmermans, PB

>  <Institution>  (1) 
TBA

>  <Link to Ligand in BindingDB>  (1) 
http://www.bindingdb.org/bind/chemsearch/marvin/MolStructure.jsp?monomerid=50283234

>  <Link to Ligand-Target Pair in BindingDB>  (1) 
http://www.bindingdb.org/jsp/dbsearch/PrimarySearch_ki.jsp?energyterm=kJ/mole&tag=r21&monomerid=50283234&enzyme=Type-1+angiotensin+II+receptor&column=ki&startPg=0&Increment=50&submit=Search

>  <Ligand HET ID in PDB>  (1) 


>  <PDB ID(s) for Ligand-Target Complex>  (1) 


>  <PubChem CID of Ligand>  (1) 
44311452

>  <PubChem SID of Ligand>  (1) 
104124908

>  <ChEBI ID of Ligand>  (1) 


>  <ChEMBL ID of Ligand>  (1) 
CHEMBL72595

>  <DrugBank ID of Ligand>  (1) 


>  <IUPHAR_GRAC ID of Ligand>  (1) 


>  <KEGG ID of Ligand>  (1) 


>  <ZINC ID of Ligand>  (1) 
ZINC26376450

>  <Number of Protein Chains in Target (bigger than 1 implies a multichain complex)>  (1) 
1

>  <BindingDB Target Chain Sequence>  (1) 
MILNSSTEDGIKRIQDDCPKAGRHNYIFVMIPTLYSIIFVVGIFGNSLVVIVIYFYMKLKTVASVFLLNLALADLCFLLTLPLWAVYTAMEYRWPFGNYLCKIASASVSFNLYASVFLLTCLSIDRYLAIVHPMKSRLRRTMLVAKVTCIIIWLLAGLASLPAIIHRNVFFIENTNITVCAFHYESQNSTLPIGLGLTKNILGFLFPFLIILTSYTLIWKALKKAYEIQKNKPRNDDIFKIIMAIVLFFFFSWIPHQIFTFLDVLIQLGIIRDCRIADIVDTAMPITICIAYFNNCLNPLFYGFLGKKFKRYFLQLLKYIPPKAKSHSNLSTKMSTLSYRPSDNVSSSTKKPAPCFEVE

>  <PDB ID(s) of Target Chain>  (1) 
6DO1,6OS0,6OS1,6OS2

>  <UniProt (SwissProt) Recommended Name of Target Chain>  (1) 
Type-1 angiotensin II receptor

>  <UniProt (SwissProt) Entry Name of Target Chain>  (1) 
AGTR1_HUMAN

>  <UniProt (SwissProt) Primary ID of Target Chain>  (1) 
P30556

>  <UniProt (SwissProt) Secondary ID(s) of Target Chain>  (1) 
Q13725 Q8TBK4

>  <UniProt (SwissProt) Alternative ID(s) of Target Chain>  (1) 


>  <UniProt (TrEMBL) Submitted Name of Target Chain>  (1) 


>  <UniProt (TrEMBL) Entry Name of Target Chain>  (1) 


>  <UniProt (TrEMBL) Primary ID of Target Chain>  (1) 


>  <UniProt (TrEMBL) Secondary ID(s) of Target Chain>  (1) 


>  <UniProt (TrEMBL) Alternative ID(s) of Target Chain>  (1) 


$$$$
