
     RDKit          2D

 40 44  0  0  0  0  0  0  0  0999 V2000
    3.0042   -4.1417    0.0000 N   0  0  0  0  0  0  0  0  0  0  0  0
    3.6667   -3.6542    0.0000 C   0  0  0  0  0  0  0  0  0  0  0  0
    3.4167   -2.8667    0.0000 N   0  0  0  0  0  0  0  0  0  0  0  0
    2.5917   -2.8667    0.0000 N   0  0  0  0  0  0  0  0  0  0  0  0
    7.9917   -5.3750    0.0000 C   0  0  0  0  0  0  0  0  0  0  0  0
    7.5625   -4.1042    0.0000 N   0  0  0  0  0  0  0  0  0  0  0  0
    7.3167   -4.8917    0.0000 N   0  0  0  0  0  0  0  0  0  0  0  0
    8.3917   -4.1000    0.0000 N   0  0  0  0  0  0  0  0  0  0  0  0
    2.3375   -3.6542    0.0000 C   0  0  0  0  0  0  0  0  0  0  0  0
    6.5750   -6.2042    0.0000 C   0  0  0  0  0  0  0  0  0  0  0  0
    8.6542   -4.8792    0.0000 N   0  0  0  0  0  0  0  0  0  0  0  0
    8.0000   -6.2042    0.0000 C   0  0  0  0  0  0  0  0  0  0  0  0
    7.2917   -6.6167    0.0000 C   0  0  0  0  0  0  0  0  0  0  0  0
    5.8625   -6.6167    0.0000 N   0  0  0  0  0  0  0  0  0  0  0  0
    4.4917   -3.6542    0.0000 S   0  0  0  0  0  0  0  0  0  0  0  0
    3.0042   -4.9667    0.0000 C   0  0  0  0  0  0  0  0  0  0  0  0
    6.5750   -5.3792    0.0000 O   0  0  0  0  0  0  0  0  0  0  0  0
    5.1417   -6.2042    0.0000 C   0  0  0  0  0  0  0  0  0  0  0  0
    3.7167   -5.3792    0.0000 C   0  0  0  0  0  0  0  0  0  0  0  0
    4.9042   -2.9375    0.0000 C   0  0  0  0  0  0  0  0  0  0  0  0
    5.7292   -2.9375    0.0000 C   0  0  0  0  0  0  0  0  0  0  0  0
    7.3750   -2.9417    0.0000 C   0  0  0  0  0  0  0  0  0  0  0  0
    4.4375   -6.6167    0.0000 C   0  0  0  0  0  0  0  0  0  0  0  0
    5.1417   -5.3792    0.0000 C   0  0  0  0  0  0  0  0  0  0  0  0
    4.4292   -4.9667    0.0000 C   0  0  0  0  0  0  0  0  0  0  0  0
    3.7167   -6.2042    0.0000 C   0  0  0  0  0  0  0  0  0  0  0  0
    6.1375   -3.6542    0.0000 C   0  0  0  0  0  0  0  0  0  0  0  0
    6.1375   -2.2250    0.0000 C   0  0  0  0  0  0  0  0  0  0  0  0
    6.9542   -2.2250    0.0000 C   0  0  0  0  0  0  0  0  0  0  0  0
    6.9625   -3.6542    0.0000 C   0  0  0  0  0  0  0  0  0  0  0  0
    1.5125   -3.6542    0.0000 C   0  0  0  0  0  0  0  0  0  0  0  0
    7.2875   -7.4417    0.0000 C   0  0  0  0  0  0  0  0  0  0  0  0
    8.7125   -6.6125    0.0000 C   0  0  0  0  0  0  0  0  0  0  0  0
    8.2000   -2.9417    0.0000 O   0  0  0  0  0  0  0  0  0  0  0  0
    8.6125   -2.2292    0.0000 C   0  0  0  0  0  0  0  0  0  0  0  0
    1.1000   -2.9417    0.0000 C   0  0  0  0  0  0  0  0  0  0  0  0
    0.2750   -2.9417    0.0000 C   0  0  0  0  0  0  0  0  0  0  0  0
    8.0000   -7.8542    0.0000 C   0  0  0  0  0  0  0  0  0  0  0  0
    8.7167   -7.4417    0.0000 C   0  0  0  0  0  0  0  0  0  0  0  0
   -0.1375   -2.2250    0.0000 C   0  0  0  0  0  0  0  0  0  0  0  0
  2  1  1  0
  3  2  2  0
  4  9  2  0
  5 12  1  0
  6  7  1  0
  7  5  1  0
  8 11  1  0
  9  1  1  0
 10 14  1  0
 11  5  2  0
 12 13  1  0
 13 10  1  0
 14 18  1  0
 15  2  1  0
 16  1  1  0
 17 10  2  0
 18 23  2  0
 19 16  1  0
 20 15  1  0
 21 20  1  0
 22 29  2  0
 23 26  1  0
 24 25  2  0
 25 19  1  0
 26 19  2  0
 27 21  1  0
 28 21  2  0
 29 28  1  0
 30 27  2  0
 31  9  1  0
 32 13  2  0
 33 12  2  0
 34 22  1  0
 35 34  1  0
 36 31  1  0
 37 36  1  0
 38 32  1  0
 39 38  2  0
 40 37  1  0
  3  4  1  0
 24 18  1  0
 30 22  1  0
 39 33  1  0
  8  6  2  0
M  END
>  <From>  (1) 
www.bindingDB.org

>  <BindingDB Reactant_set_id>  (1) 
51183583

>  <Ligand InChI>  (1) 
InChI=1S/C29H30N8O2S/c1-3-4-9-26-31-34-29(40-19-21-12-16-23(39-2)17-13-21)37(26)18-20-10-14-22(15-11-20)30-28(38)25-8-6-5-7-24(25)27-32-35-36-33-27/h5-8,10-17H,3-4,9,18-19H2,1-2H3,(H,30,38)(H,32,33,35,36)

>  <Ligand InChI Key>  (1) 
NODXAMFYUHYYBY-UHFFFAOYSA-N

>  <BindingDB MonomerID>  (1) 
50047830

>  <BindingDB Ligand Name>  (1) 
CHEMBL156934::N-{4-[3-Butyl-5-(4-methoxy-benzylsulfanyl)-[1,2,4]triazol-4-ylmethyl]-phenyl}-2-(1H-tetrazol-5-yl)-benzamide

>  <Target Name>  (1) 
Type-1 angiotensin II receptor

>  <Target Source Organism According to Curator or DataSource>  (1) 
Oryctolagus cuniculus

>  <Ki (nM)>  (1) 


>  <IC50 (nM)>  (1) 
 4.1

>  <Kd (nM)>  (1) 


>  <EC50 (nM)>  (1) 


>  <kon (M-1-s-1)>  (1) 


>  <koff (s-1)>  (1) 


>  <pH>  (1) 


>  <Temp C>  (1) 


>  <Curation/DataSource>  (1) 
ChEMBL

>  <Article DOI>  (1) 
10.1007/s00044-011-9756-4

>  <BindingDB Entry DOI>  (1) 
10.7270/Q2833VXQ

>  <PMID>  (1) 


>  <PubChem AID>  (1) 


>  <Patent Number>  (1) 


>  <Authors>  (1) 
n/a

>  <Institution>  (1) 
n/a

>  <Link to Ligand in BindingDB>  (1) 
http://www.bindingdb.org/bind/chemsearch/marvin/MolStructure.jsp?monomerid=50047830

>  <Link to Ligand-Target Pair in BindingDB>  (1) 
http://www.bindingdb.org/jsp/dbsearch/PrimarySearch_ki.jsp?energyterm=kJ/mole&tag=r21&monomerid=50047830&enzyme=Type-1+angiotensin+II+receptor&column=ki&startPg=0&Increment=50&submit=Search

>  <Ligand HET ID in PDB>  (1) 


>  <PDB ID(s) for Ligand-Target Complex>  (1) 


>  <PubChem CID of Ligand>  (1) 
10053393

>  <PubChem SID of Ligand>  (1) 
103978394

>  <ChEBI ID of Ligand>  (1) 


>  <ChEMBL ID of Ligand>  (1) 
CHEMBL156934

>  <DrugBank ID of Ligand>  (1) 


>  <IUPHAR_GRAC ID of Ligand>  (1) 


>  <KEGG ID of Ligand>  (1) 


>  <ZINC ID of Ligand>  (1) 
ZINC27708902

>  <Number of Protein Chains in Target (bigger than 1 implies a multichain complex)>  (1) 
1

>  <BindingDB Target Chain Sequence>  (1) 
MMLNSSTEDGIKRIQDDCPKAGRHNYIFVMIPTLYSIIFVVGIFGNSLAVIVIYFYMKLKTVASVFLLNLALADLCFLLTLPLWAVYTAMEYRWPFGNYLCKIASASVSFNLYASVFLLTCLSIDRYLAIVHPMKSRLRRTMLVAKVTCIIIWLLAGLASLPAIIHRNVFFIENTNITVCAFHYESQNSTLPIGLGLTKNILGFLFPFLIILTSYTLIWKALKKAYEIQKNKPRNDDIFKIIMAIVLFFFFSWVPHQIFTFLDVLIQLGVIHDCRIADIVDTAMPITICIAYFNNCLNPLFYGFLGKKFKKYFLQLLKYIPPKAKSHSNLSTKMSTLSYRPSDNVSSSSKKPVPCFEVE

>  <PDB ID(s) of Target Chain>  (1) 
6DO1,6OS0,6OS1,6OS2

>  <UniProt (SwissProt) Recommended Name of Target Chain>  (1) 
Type-1 angiotensin II receptor

>  <UniProt (SwissProt) Entry Name of Target Chain>  (1) 
AGTR1_RABIT

>  <UniProt (SwissProt) Primary ID of Target Chain>  (1) 
P34976

>  <UniProt (SwissProt) Secondary ID(s) of Target Chain>  (1) 


>  <UniProt (SwissProt) Alternative ID(s) of Target Chain>  (1) 


>  <UniProt (TrEMBL) Submitted Name of Target Chain>  (1) 


>  <UniProt (TrEMBL) Entry Name of Target Chain>  (1) 


>  <UniProt (TrEMBL) Primary ID of Target Chain>  (1) 


>  <UniProt (TrEMBL) Secondary ID(s) of Target Chain>  (1) 


>  <UniProt (TrEMBL) Alternative ID(s) of Target Chain>  (1) 


$$$$
