
     RDKit          2D

 34 38  0  0  0  0  0  0  0  0999 V2000
    2.7213   -1.2089    0.0000 N   0  0  0  0  0  0  0  0  0  0  0  0
    3.3859   -0.7276    0.0000 C   0  0  0  0  0  0  0  0  0  0  0  0
    3.1280    0.0630    0.0000 N   0  0  0  0  0  0  0  0  0  0  0  0
    2.3031    0.0630    0.0000 N   0  0  0  0  0  0  0  0  0  0  0  0
    2.0510   -0.7276    0.0000 C   0  0  0  0  0  0  0  0  0  0  0  0
    6.2791   -2.4463    0.0000 C   0  0  0  0  0  0  0  0  0  0  0  0
    5.8666   -1.1859    0.0000 N   0  0  0  0  0  0  0  0  0  0  0  0
    5.6088   -1.9651    0.0000 N   0  0  0  0  0  0  0  0  0  0  0  0
    6.6915   -1.1745    0.0000 N   0  0  0  0  0  0  0  0  0  0  0  0
    6.9494   -1.9651    0.0000 N   0  0  0  0  0  0  0  0  0  0  0  0
    6.2905   -3.2713    0.0000 C   0  0  0  0  0  0  0  0  0  0  0  0
    5.5744   -3.6838    0.0000 C   0  0  0  0  0  0  0  0  0  0  0  0
    2.7213   -2.0339    0.0000 C   0  0  0  0  0  0  0  0  0  0  0  0
    4.1650   -0.9797    0.0000 O   0  0  0  0  0  0  0  0  0  0  0  0
    3.6151    0.7333    0.0000 C   0  0  0  0  0  0  0  0  0  0  0  0
    4.8639   -3.2713    0.0000 C   0  0  0  0  0  0  0  0  0  0  0  0
    4.1593   -3.6838    0.0000 C   0  0  0  0  0  0  0  0  0  0  0  0
    4.8697   -2.4463    0.0000 C   0  0  0  0  0  0  0  0  0  0  0  0
    3.4374   -2.4463    0.0000 C   0  0  0  0  0  0  0  0  0  0  0  0
    1.2718   -0.9854    0.0000 C   0  0  0  0  0  0  0  0  0  0  0  0
    3.4432   -3.2713    0.0000 C   0  0  0  0  0  0  0  0  0  0  0  0
    4.1479   -2.0339    0.0000 C   0  0  0  0  0  0  0  0  0  0  0  0
    7.0009   -3.6838    0.0000 C   0  0  0  0  0  0  0  0  0  0  0  0
    5.5744   -4.5088    0.0000 C   0  0  0  0  0  0  0  0  0  0  0  0
    4.4343    0.6473    0.0000 C   0  0  0  0  0  0  0  0  0  0  0  0
    3.2713    1.4723    0.0000 C   0  0  0  0  0  0  0  0  0  0  0  0
    0.6531   -0.4355    0.0000 C   0  0  0  0  0  0  0  0  0  0  0  0
   -0.1317   -0.6933    0.0000 C   0  0  0  0  0  0  0  0  0  0  0  0
    6.2905   -4.9213    0.0000 C   0  0  0  0  0  0  0  0  0  0  0  0
    7.0009   -4.5088    0.0000 C   0  0  0  0  0  0  0  0  0  0  0  0
   -0.7505   -0.1433    0.0000 C   0  0  0  0  0  0  0  0  0  0  0  0
    3.7526    2.1426    0.0000 C   0  0  0  0  0  0  0  0  0  0  0  0
    4.9155    1.3062    0.0000 C   0  0  0  0  0  0  0  0  0  0  0  0
    4.5775    2.0624    0.0000 C   0  0  0  0  0  0  0  0  0  0  0  0
  2  1  1  0
  3  2  1  0
  4  5  2  0
  5  1  1  0
  6 11  1  0
  7  8  1  0
  8  6  1  0
  9 10  1  0
 10  6  2  0
 11 12  1  0
 12 16  1  0
 13  1  1  0
 14  2  2  0
 15  3  1  0
 16 18  2  0
 17 21  2  0
 18 22  1  0
 19 13  1  0
 20  5  1  0
 21 19  1  0
 22 19  2  0
 23 11  2  0
 24 12  2  0
 25 15  2  0
 26 15  1  0
 27 20  1  0
 28 27  1  0
 29 24  1  0
 30 29  2  0
 31 28  1  0
 32 26  2  0
 33 25  1  0
 34 32  1  0
  3  4  1  0
 17 16  1  0
 33 34  2  0
 30 23  1  0
  9  7  2  0
M  END
>  <From>  (1) 
www.bindingDB.org

>  <BindingDB Reactant_set_id>  (1) 
50060538

>  <Ligand InChI>  (1) 
InChI=1S/C26H25N7O/c1-2-3-13-24-29-33(21-9-5-4-6-10-21)26(34)32(24)18-19-14-16-20(17-15-19)22-11-7-8-12-23(22)25-27-30-31-28-25/h4-12,14-17H,2-3,13,18H2,1H3,(H,27,28,30,31)

>  <Ligand InChI Key>  (1) 
KYTVRGJDSRRIEG-UHFFFAOYSA-N

>  <BindingDB MonomerID>  (1) 
50044354

>  <BindingDB Ligand Name>  (1) 
5-Butyl-2-phenyl-4-[2'-(1H-tetrazol-5-yl)-biphenyl-4-ylmethyl]-2,4-dihydro-[1,2,4]triazol-3-one::5-Butyl-2-phenyl-4-[2'-(2H-tetrazol-5-yl)-biphenyl-4-ylmethyl]-2,4-dihydro-[1,2,4]triazol-3-one::CHEMBL85876

>  <Target Name>  (1) 
Type-1 angiotensin II receptor

>  <Target Source Organism According to Curator or DataSource>  (1) 
Oryctolagus cuniculus

>  <Ki (nM)>  (1) 


>  <IC50 (nM)>  (1) 
 22

>  <Kd (nM)>  (1) 


>  <EC50 (nM)>  (1) 


>  <kon (M-1-s-1)>  (1) 


>  <koff (s-1)>  (1) 


>  <pH>  (1) 


>  <Temp C>  (1) 


>  <Curation/DataSource>  (1) 
ChEMBL

>  <Article DOI>  (1) 
10.1021/jm00069a015

>  <BindingDB Entry DOI>  (1) 
10.7270/Q2KP817C

>  <PMID>  (1) 
8355255

>  <PubChem AID>  (1) 


>  <Patent Number>  (1) 


>  <Authors>  (1) 
Chang, LL; Ashton, WT; Flanagan, KL; Strelitz, RA; MacCoss, M; Greenlee, WJ; Chang, RS; Lotti, VJ; Faust, KA; Chen, TB

>  <Institution>  (1) 
Merck Research Laboratories

>  <Link to Ligand in BindingDB>  (1) 
http://www.bindingdb.org/bind/chemsearch/marvin/MolStructure.jsp?monomerid=50044354

>  <Link to Ligand-Target Pair in BindingDB>  (1) 
http://www.bindingdb.org/jsp/dbsearch/PrimarySearch_ki.jsp?energyterm=kJ/mole&tag=r21&monomerid=50044354&enzyme=Type-1+angiotensin+II+receptor&column=ki&startPg=0&Increment=50&submit=Search

>  <Ligand HET ID in PDB>  (1) 


>  <PDB ID(s) for Ligand-Target Complex>  (1) 


>  <PubChem CID of Ligand>  (1) 
10275744

>  <PubChem SID of Ligand>  (1) 
103975609

>  <ChEBI ID of Ligand>  (1) 


>  <ChEMBL ID of Ligand>  (1) 
CHEMBL85876

>  <DrugBank ID of Ligand>  (1) 


>  <IUPHAR_GRAC ID of Ligand>  (1) 


>  <KEGG ID of Ligand>  (1) 


>  <ZINC ID of Ligand>  (1) 
ZINC13832631

>  <Number of Protein Chains in Target (bigger than 1 implies a multichain complex)>  (1) 
1

>  <BindingDB Target Chain Sequence>  (1) 
MMLNSSTEDGIKRIQDDCPKAGRHNYIFVMIPTLYSIIFVVGIFGNSLAVIVIYFYMKLKTVASVFLLNLALADLCFLLTLPLWAVYTAMEYRWPFGNYLCKIASASVSFNLYASVFLLTCLSIDRYLAIVHPMKSRLRRTMLVAKVTCIIIWLLAGLASLPAIIHRNVFFIENTNITVCAFHYESQNSTLPIGLGLTKNILGFLFPFLIILTSYTLIWKALKKAYEIQKNKPRNDDIFKIIMAIVLFFFFSWVPHQIFTFLDVLIQLGVIHDCRIADIVDTAMPITICIAYFNNCLNPLFYGFLGKKFKKYFLQLLKYIPPKAKSHSNLSTKMSTLSYRPSDNVSSSSKKPVPCFEVE

>  <PDB ID(s) of Target Chain>  (1) 
6DO1,6OS0,6OS1,6OS2

>  <UniProt (SwissProt) Recommended Name of Target Chain>  (1) 
Type-1 angiotensin II receptor

>  <UniProt (SwissProt) Entry Name of Target Chain>  (1) 
AGTR1_RABIT

>  <UniProt (SwissProt) Primary ID of Target Chain>  (1) 
P34976

>  <UniProt (SwissProt) Secondary ID(s) of Target Chain>  (1) 


>  <UniProt (SwissProt) Alternative ID(s) of Target Chain>  (1) 


>  <UniProt (TrEMBL) Submitted Name of Target Chain>  (1) 


>  <UniProt (TrEMBL) Entry Name of Target Chain>  (1) 


>  <UniProt (TrEMBL) Primary ID of Target Chain>  (1) 


>  <UniProt (TrEMBL) Secondary ID(s) of Target Chain>  (1) 


>  <UniProt (TrEMBL) Alternative ID(s) of Target Chain>  (1) 


$$$$
