
     RDKit          2D

 35 39  0  0  0  0  0  0  0  0999 V2000
    4.1917   -4.9167    0.0000 N   0  0  0  0  0  0  0  0  0  0  0  0
    4.1917   -4.0917    0.0000 C   0  0  0  0  0  0  0  0  0  0  0  0
    3.4792   -3.6750    0.0000 C   0  0  0  0  0  0  0  0  0  0  0  0
    2.7750   -4.9167    0.0000 N   0  0  0  0  0  0  0  0  0  0  0  0
    3.4792   -5.3250    0.0000 C   0  0  0  0  0  0  0  0  0  0  0  0
    2.7750   -4.0917    0.0000 C   0  0  0  0  0  0  0  0  0  0  0  0
    8.4792   -4.9167    0.0000 C   0  0  0  0  0  0  0  0  0  0  0  0
    9.1542   -5.4042    0.0000 N   0  0  0  0  0  0  0  0  0  0  0  0
    8.9000   -6.1917    0.0000 N   0  0  0  0  0  0  0  0  0  0  0  0
    7.8167   -5.4042    0.0000 N   0  0  0  0  0  0  0  0  0  0  0  0
    8.0750   -6.1917    0.0000 N   0  0  0  0  0  0  0  0  0  0  0  0
    8.4792   -4.0917    0.0000 C   0  0  0  0  0  0  0  0  0  0  0  0
    7.7667   -3.6792    0.0000 C   0  0  0  0  0  0  0  0  0  0  0  0
    4.9125   -5.3292    0.0000 C   0  0  0  0  0  0  0  0  0  0  0  0
    4.9125   -3.6792    0.0000 O   0  0  0  0  0  0  0  0  0  0  0  0
    7.0542   -4.0917    0.0000 C   0  0  0  0  0  0  0  0  0  0  0  0
    6.3375   -3.6792    0.0000 C   0  0  0  0  0  0  0  0  0  0  0  0
    7.0542   -4.9167    0.0000 C   0  0  0  0  0  0  0  0  0  0  0  0
    5.6250   -4.9167    0.0000 C   0  0  0  0  0  0  0  0  0  0  0  0
    3.0667   -2.9542    0.0000 C   0  0  0  0  0  0  0  0  0  0  0  0
    3.8917   -2.9542    0.0000 C   0  0  0  0  0  0  0  0  0  0  0  0
    3.4792   -6.1500    0.0000 C   0  0  0  0  0  0  0  0  0  0  0  0
    5.6250   -4.0917    0.0000 C   0  0  0  0  0  0  0  0  0  0  0  0
    6.3375   -5.3292    0.0000 C   0  0  0  0  0  0  0  0  0  0  0  0
    2.0167   -4.4292    0.0000 C   0  0  0  0  0  0  0  0  0  0  0  0
    2.6792   -3.2667    0.0000 C   0  0  0  0  0  0  0  0  0  0  0  0
    9.1917   -3.6875    0.0000 C   0  0  0  0  0  0  0  0  0  0  0  0
    7.7667   -2.8625    0.0000 C   0  0  0  0  0  0  0  0  0  0  0  0
    2.7667   -6.5625    0.0000 C   0  0  0  0  0  0  0  0  0  0  0  0
    2.7667   -7.3875    0.0000 C   0  0  0  0  0  0  0  0  0  0  0  0
    1.8750   -3.1000    0.0000 C   0  0  0  0  0  0  0  0  0  0  0  0
    1.4667   -3.8167    0.0000 C   0  0  0  0  0  0  0  0  0  0  0  0
    9.1917   -2.8542    0.0000 C   0  0  0  0  0  0  0  0  0  0  0  0
    8.4792   -2.4417    0.0000 C   0  0  0  0  0  0  0  0  0  0  0  0
    2.0542   -7.8000    0.0000 C   0  0  0  0  0  0  0  0  0  0  0  0
  2  1  1  0
  3  2  1  0
  4  5  2  0
  5  1  1  0
  6  4  1  0
  7 12  1  0
  8  7  1  0
  9  8  1  0
 10  7  2  0
 11 10  1  0
 12 13  1  0
 13 16  1  0
 14  1  1  0
 15  2  2  0
 16 18  2  0
 17 23  2  0
 18 24  1  0
 19 14  1  0
 20  3  1  0
 21  3  1  0
 22  5  1  0
 23 19  1  0
 24 19  2  0
 25  6  1  0
 26  6  1  0
 27 12  2  0
 28 13  2  0
 29 22  1  0
 30 29  1  0
 31 26  1  0
 32 25  1  0
 33 34  2  0
 34 28  1  0
 35 30  1  0
  6  3  1  0
 16 17  1  0
 32 31  1  0
 33 27  1  0
  9 11  2  0
M  END
>  <From>  (1) 
www.bindingDB.org

>  <BindingDB Reactant_set_id>  (1) 
50467353

>  <Ligand InChI>  (1) 
InChI=1S/C28H34N6O/c1-4-5-12-24-29-28(17-8-9-18-28)27(2,3)26(35)34(24)19-20-13-15-21(16-14-20)22-10-6-7-11-23(22)25-30-32-33-31-25/h6-7,10-11,13-16H,4-5,8-9,12,17-19H2,1-3H3,(H,30,31,32,33)

>  <Ligand InChI Key>  (1) 
WZHJBFHCYASUBQ-UHFFFAOYSA-N

>  <BindingDB MonomerID>  (1) 
50282261

>  <BindingDB Ligand Name>  (1) 
7-Butyl-10,10-dimethyl-8-[2'-(2H-tetrazol-5-yl)-biphenyl-4-ylmethyl]-6,8-diaza-spiro[4.5]dec-6-en-9-one::CHEMBL40251

>  <Target Name>  (1) 
Type-1 angiotensin II receptor B

>  <Target Source Organism According to Curator or DataSource>  (1) 
Rattus

>  <Ki (nM)>  (1) 


>  <IC50 (nM)>  (1) 
 2.2

>  <Kd (nM)>  (1) 


>  <EC50 (nM)>  (1) 


>  <kon (M-1-s-1)>  (1) 


>  <koff (s-1)>  (1) 


>  <pH>  (1) 


>  <Temp C>  (1) 


>  <Curation/DataSource>  (1) 
ChEMBL

>  <Article DOI>  (1) 
10.1016/S0960-894X(01)81139-2

>  <BindingDB Entry DOI>  (1) 
10.7270/Q2QN66QV

>  <PMID>  (1) 


>  <PubChem AID>  (1) 


>  <Patent Number>  (1) 


>  <Authors>  (1) 
Bernhart, CA; Hundricourt, FB; Assens, JL; Gougat, J; Lacour, C; Roccon, A; Cazaubon, C; Breli&#xe8;re, JC; Fur, GL; Nisato, D

>  <Institution>  (1) 
TBA

>  <Link to Ligand in BindingDB>  (1) 
http://www.bindingdb.org/bind/chemsearch/marvin/MolStructure.jsp?monomerid=50282261

>  <Link to Ligand-Target Pair in BindingDB>  (1) 
http://www.bindingdb.org/jsp/dbsearch/PrimarySearch_ki.jsp?energyterm=kJ/mole&tag=r21&monomerid=50282261&enzyme=Type-1+angiotensin+II+receptor+B&column=ki&startPg=0&Increment=50&submit=Search

>  <Ligand HET ID in PDB>  (1) 


>  <PDB ID(s) for Ligand-Target Complex>  (1) 


>  <PubChem CID of Ligand>  (1) 
44288322

>  <PubChem SID of Ligand>  (1) 
104123935

>  <ChEBI ID of Ligand>  (1) 


>  <ChEMBL ID of Ligand>  (1) 
CHEMBL40251

>  <DrugBank ID of Ligand>  (1) 


>  <IUPHAR_GRAC ID of Ligand>  (1) 


>  <KEGG ID of Ligand>  (1) 


>  <ZINC ID of Ligand>  (1) 
ZINC29346757

>  <Number of Protein Chains in Target (bigger than 1 implies a multichain complex)>  (1) 
1

>  <BindingDB Target Chain Sequence>  (1) 
MTLNSSTEDGIKRIQDDCPKAGRHNYIFVMIPTLYSIIFVVGIFGNSLVVIVIYFYMKLKTVASVFLLNLALADLCFLLTLPLWAVYTAMEYRWPFGNHLCKIASASVSFNLYASVFLLTCLSIDRYLAIVHPMKSRLRRTMLVAKVTCIIIWLMAGLASLPAVIYRNVYFIENTNITVCAFHYESQNSTLPIGLGLTKNILGFVFPFLIILTSYTLIWKALKKAYKIQKNTPRNDDIFRIIMAIVLFFFFSWVPHQIFTFLDVLIQLGIIRDCEIADIVDTAMPITICIAYFNNCLNPLFYGFLGKKFKKYFLQLLKYIPPTAKSHAGLSTKMSTLSYRPSDNMSSSAKKSASFFEVE

>  <PDB ID(s) of Target Chain>  (1) 


>  <UniProt (SwissProt) Recommended Name of Target Chain>  (1) 
Type-1 angiotensin II receptor B

>  <UniProt (SwissProt) Entry Name of Target Chain>  (1) 
AGTRB_RAT

>  <UniProt (SwissProt) Primary ID of Target Chain>  (1) 
P29089

>  <UniProt (SwissProt) Secondary ID(s) of Target Chain>  (1) 


>  <UniProt (SwissProt) Alternative ID(s) of Target Chain>  (1) 


>  <UniProt (TrEMBL) Submitted Name of Target Chain>  (1) 


>  <UniProt (TrEMBL) Entry Name of Target Chain>  (1) 


>  <UniProt (TrEMBL) Primary ID of Target Chain>  (1) 


>  <UniProt (TrEMBL) Secondary ID(s) of Target Chain>  (1) 


>  <UniProt (TrEMBL) Alternative ID(s) of Target Chain>  (1) 


$$$$
