
     RDKit          2D

 39 43  0  0  0  0  0  0  0  0999 V2000
    8.5917  -11.1667    0.0000 S   0  0  0  0  0  0  0  0  0  0  0  0
    5.0500   -9.8917    0.0000 N   0  0  0  0  0  0  0  0  0  0  0  0
    8.5917  -10.3417    0.0000 N   0  0  0  0  0  0  0  0  0  0  0  0
    5.7167   -9.4167    0.0000 C   0  0  0  0  0  0  0  0  0  0  0  0
    4.6417   -8.6250    0.0000 N   0  0  0  0  0  0  0  0  0  0  0  0
    4.3875   -9.4042    0.0000 C   0  0  0  0  0  0  0  0  0  0  0  0
    5.4875   -8.6375    0.0000 C   0  0  0  0  0  0  0  0  0  0  0  0
    8.5917  -11.9917    0.0000 C   0  0  0  0  0  0  0  0  0  0  0  0
    9.3000   -9.9167    0.0000 C   0  0  0  0  0  0  0  0  0  0  0  0
    7.8750  -12.3917    0.0000 C   0  0  0  0  0  0  0  0  0  0  0  0
    7.7667  -11.1667    0.0000 O   0  0  0  0  0  0  0  0  0  0  0  0
    9.4167  -11.1667    0.0000 O   0  0  0  0  0  0  0  0  0  0  0  0
    5.0417  -10.7167    0.0000 C   0  0  0  0  0  0  0  0  0  0  0  0
    7.1667  -11.9792    0.0000 C   0  0  0  0  0  0  0  0  0  0  0  0
    6.4417   -9.7500    0.0000 O   0  0  0  0  0  0  0  0  0  0  0  0
   10.0167  -10.3292    0.0000 O   0  0  0  0  0  0  0  0  0  0  0  0
    9.2917   -9.0917    0.0000 C   0  0  0  0  0  0  0  0  0  0  0  0
    6.4417  -12.3792    0.0000 C   0  0  0  0  0  0  0  0  0  0  0  0
    7.1667  -11.1500    0.0000 C   0  0  0  0  0  0  0  0  0  0  0  0
    5.7500  -11.1417    0.0000 C   0  0  0  0  0  0  0  0  0  0  0  0
    3.6000   -9.6542    0.0000 C   0  0  0  0  0  0  0  0  0  0  0  0
    6.4625  -10.7292    0.0000 C   0  0  0  0  0  0  0  0  0  0  0  0
    5.7375  -11.9667    0.0000 C   0  0  0  0  0  0  0  0  0  0  0  0
    6.3125   -8.6375    0.0000 C   0  0  0  0  0  0  0  0  0  0  0  0
    5.2292   -7.8500    0.0000 C   0  0  0  0  0  0  0  0  0  0  0  0
    9.3000  -12.4042    0.0000 C   0  0  0  0  0  0  0  0  0  0  0  0
    7.8667  -13.2250    0.0000 C   0  0  0  0  0  0  0  0  0  0  0  0
   10.0042   -8.6875    0.0000 C   0  0  0  0  0  0  0  0  0  0  0  0
    8.5792   -8.6917    0.0000 C   0  0  0  0  0  0  0  0  0  0  0  0
    2.9917   -9.0917    0.0000 C   0  0  0  0  0  0  0  0  0  0  0  0
    2.2042   -9.3417    0.0000 C   0  0  0  0  0  0  0  0  0  0  0  0
    5.9000   -7.3667    0.0000 C   0  0  0  0  0  0  0  0  0  0  0  0
    6.5667   -7.8500    0.0000 C   0  0  0  0  0  0  0  0  0  0  0  0
    9.2917  -13.2375    0.0000 C   0  0  0  0  0  0  0  0  0  0  0  0
    8.5792  -13.6417    0.0000 C   0  0  0  0  0  0  0  0  0  0  0  0
    1.5917   -8.7875    0.0000 C   0  0  0  0  0  0  0  0  0  0  0  0
   10.0042   -7.8625    0.0000 C   0  0  0  0  0  0  0  0  0  0  0  0
    8.5667   -7.8750    0.0000 C   0  0  0  0  0  0  0  0  0  0  0  0
    9.2792   -7.4542    0.0000 C   0  0  0  0  0  0  0  0  0  0  0  0
  2 13  1  0
  3  1  1  0
  4  2  1  0
  5  6  2  0
  6  2  1  0
  7  4  1  0
  8  1  1  0
  9  3  1  0
 10  8  1  0
 11  1  2  0
 12  1  2  0
 13 20  1  0
 14 10  1  0
 15  4  2  0
 16  9  2  0
 17  9  1  0
 18 14  2  0
 19 14  1  0
 20 22  1  0
 21  6  1  0
 22 19  2  0
 23 18  1  0
 24  7  1  0
 25  7  1  0
 26  8  2  0
 27 10  2  0
 28 17  2  0
 29 17  1  0
 30 21  1  0
 31 30  1  0
 32 25  1  0
 33 24  1  0
 34 26  1  0
 35 34  2  0
 36 31  1  0
 37 28  1  0
 38 29  2  0
 39 38  1  0
 35 27  1  0
 23 20  2  0
 39 37  2  0
  5  7  1  0
 32 33  1  0
M  END
>  <From>  (1) 
www.bindingDB.org

>  <BindingDB Reactant_set_id>  (1) 
50468249

>  <Ligand InChI>  (1) 
InChI=1S/C31H33N3O4S/c1-2-3-15-28-32-31(20-9-10-21-31)30(36)34(28)22-23-16-18-24(19-17-23)26-13-7-8-14-27(26)39(37,38)33-29(35)25-11-5-4-6-12-25/h4-8,11-14,16-19H,2-3,9-10,15,20-22H2,1H3,(H,33,35)

>  <Ligand InChI Key>  (1) 
JWMHYNYBFJTPHE-UHFFFAOYSA-N

>  <BindingDB MonomerID>  (1) 
50282733

>  <BindingDB Ligand Name>  (1) 
4'-(2-Butyl-4-oxo-1,3-diaza-spiro[4.4]non-1-en-3-ylmethyl)-biphenyl-2-sulfonic acid benzoylamide::CHEMBL286134

>  <Target Name>  (1) 
Type-1 angiotensin II receptor

>  <Target Source Organism According to Curator or DataSource>  (1) 
Homo sapiens

>  <Ki (nM)>  (1) 


>  <IC50 (nM)>  (1) 
 1

>  <Kd (nM)>  (1) 


>  <EC50 (nM)>  (1) 


>  <kon (M-1-s-1)>  (1) 


>  <koff (s-1)>  (1) 


>  <pH>  (1) 


>  <Temp C>  (1) 


>  <Curation/DataSource>  (1) 
ChEMBL

>  <Article DOI>  (1) 
10.1016/S0960-894X(01)80526-6

>  <BindingDB Entry DOI>  (1) 
10.7270/Q22V2G29

>  <PMID>  (1) 


>  <PubChem AID>  (1) 


>  <Patent Number>  (1) 


>  <Authors>  (1) 
Quan, ML; DeLucca, I; Boswell, GA; Chiu, AT; Wong, PC; Wexler, RR; Timmermans, PB

>  <Institution>  (1) 
TBA

>  <Link to Ligand in BindingDB>  (1) 
http://www.bindingdb.org/bind/chemsearch/marvin/MolStructure.jsp?monomerid=50282733

>  <Link to Ligand-Target Pair in BindingDB>  (1) 
http://www.bindingdb.org/jsp/dbsearch/PrimarySearch_ki.jsp?energyterm=kJ/mole&tag=r21&monomerid=50282733&enzyme=Type-1+angiotensin+II+receptor&column=ki&startPg=0&Increment=50&submit=Search

>  <Ligand HET ID in PDB>  (1) 


>  <PDB ID(s) for Ligand-Target Complex>  (1) 


>  <PubChem CID of Ligand>  (1) 
15818748

>  <PubChem SID of Ligand>  (1) 
104124407

>  <ChEBI ID of Ligand>  (1) 


>  <ChEMBL ID of Ligand>  (1) 
CHEMBL286134

>  <DrugBank ID of Ligand>  (1) 


>  <IUPHAR_GRAC ID of Ligand>  (1) 


>  <KEGG ID of Ligand>  (1) 


>  <ZINC ID of Ligand>  (1) 
ZINC29317487

>  <Number of Protein Chains in Target (bigger than 1 implies a multichain complex)>  (1) 
1

>  <BindingDB Target Chain Sequence>  (1) 
MILNSSTEDGIKRIQDDCPKAGRHNYIFVMIPTLYSIIFVVGIFGNSLVVIVIYFYMKLKTVASVFLLNLALADLCFLLTLPLWAVYTAMEYRWPFGNYLCKIASASVSFNLYASVFLLTCLSIDRYLAIVHPMKSRLRRTMLVAKVTCIIIWLLAGLASLPAIIHRNVFFIENTNITVCAFHYESQNSTLPIGLGLTKNILGFLFPFLIILTSYTLIWKALKKAYEIQKNKPRNDDIFKIIMAIVLFFFFSWIPHQIFTFLDVLIQLGIIRDCRIADIVDTAMPITICIAYFNNCLNPLFYGFLGKKFKRYFLQLLKYIPPKAKSHSNLSTKMSTLSYRPSDNVSSSTKKPAPCFEVE

>  <PDB ID(s) of Target Chain>  (1) 
6DO1,6OS0,6OS1,6OS2

>  <UniProt (SwissProt) Recommended Name of Target Chain>  (1) 
Type-1 angiotensin II receptor

>  <UniProt (SwissProt) Entry Name of Target Chain>  (1) 
AGTR1_HUMAN

>  <UniProt (SwissProt) Primary ID of Target Chain>  (1) 
P30556

>  <UniProt (SwissProt) Secondary ID(s) of Target Chain>  (1) 
Q13725 Q8TBK4

>  <UniProt (SwissProt) Alternative ID(s) of Target Chain>  (1) 


>  <UniProt (TrEMBL) Submitted Name of Target Chain>  (1) 


>  <UniProt (TrEMBL) Entry Name of Target Chain>  (1) 


>  <UniProt (TrEMBL) Primary ID of Target Chain>  (1) 


>  <UniProt (TrEMBL) Secondary ID(s) of Target Chain>  (1) 


>  <UniProt (TrEMBL) Alternative ID(s) of Target Chain>  (1) 


$$$$
