
     RDKit          2D

 41 46  0  0  0  0  0  0  0  0999 V2000
    0.5560   -6.2986    0.0000 N   0  0  0  0  0  0  0  0  0  0  0  0
    0.8483   -7.6053    0.0000 N   0  0  0  0  0  0  0  0  0  0  0  0
    1.1749   -6.8430    0.0000 C   0  0  0  0  0  0  0  0  0  0  0  0
   -0.1547   -6.7227    0.0000 N   0  0  0  0  0  0  0  0  0  0  0  0
    0.0230   -7.5308    0.0000 C   0  0  0  0  0  0  0  0  0  0  0  0
    4.5449   -6.8316    0.0000 C   0  0  0  0  0  0  0  0  0  0  0  0
    3.7196   -6.7628    0.0000 N   0  0  0  0  0  0  0  0  0  0  0  0
    3.5304   -5.9661    0.0000 N   0  0  0  0  0  0  0  0  0  0  0  0
    4.8543   -6.0751    0.0000 N   0  0  0  0  0  0  0  0  0  0  0  0
    4.2354   -5.5363    0.0000 N   0  0  0  0  0  0  0  0  0  0  0  0
    0.6247   -5.4733    0.0000 C   0  0  0  0  0  0  0  0  0  0  0  0
    4.9747   -7.5365    0.0000 C   0  0  0  0  0  0  0  0  0  0  0  0
    4.5792   -8.2587    0.0000 C   0  0  0  0  0  0  0  0  0  0  0  0
   -0.0458   -5.0091    0.0000 C   0  0  0  0  0  0  0  0  0  0  0  0
    1.2781   -8.3102    0.0000 C   0  0  0  0  0  0  0  0  0  0  0  0
    1.9830   -6.6597    0.0000 O   0  0  0  0  0  0  0  0  0  0  0  0
    3.7540   -8.2758    0.0000 C   0  0  0  0  0  0  0  0  0  0  0  0
   -0.7909   -5.3530    0.0000 C   0  0  0  0  0  0  0  0  0  0  0  0
    3.3355   -7.5709    0.0000 C   0  0  0  0  0  0  0  0  0  0  0  0
    3.3585   -8.9980    0.0000 C   0  0  0  0  0  0  0  0  0  0  0  0
    2.1034   -8.3045    0.0000 C   0  0  0  0  0  0  0  0  0  0  0  0
   -0.5158   -8.1497    0.0000 C   0  0  0  0  0  0  0  0  0  0  0  0
   -1.4729   -4.8887    0.0000 C   0  0  0  0  0  0  0  0  0  0  0  0
    2.5274   -9.0094    0.0000 C   0  0  0  0  0  0  0  0  0  0  0  0
    2.4988   -7.5823    0.0000 C   0  0  0  0  0  0  0  0  0  0  0  0
    1.3813   -5.1294    0.0000 C   0  0  0  0  0  0  0  0  0  0  0  0
    5.8000   -7.5193    0.0000 C   0  0  0  0  0  0  0  0  0  0  0  0
    5.0033   -8.9636    0.0000 C   0  0  0  0  0  0  0  0  0  0  0  0
    0.0230   -4.1838    0.0000 C   0  0  0  0  0  0  0  0  0  0  0  0
   -1.4041   -4.0634    0.0000 C   0  0  0  0  0  0  0  0  0  0  0  0
   -2.2122   -5.2440    0.0000 C   0  0  0  0  0  0  0  0  0  0  0  0
   -1.3239   -7.9836    0.0000 C   0  0  0  0  0  0  0  0  0  0  0  0
   -1.8683   -8.6025    0.0000 C   0  0  0  0  0  0  0  0  0  0  0  0
    5.8286   -8.9464    0.0000 C   0  0  0  0  0  0  0  0  0  0  0  0
    1.4500   -4.3156    0.0000 C   0  0  0  0  0  0  0  0  0  0  0  0
    6.2298   -8.2243    0.0000 C   0  0  0  0  0  0  0  0  0  0  0  0
    0.7795   -3.8399    0.0000 C   0  0  0  0  0  0  0  0  0  0  0  0
   -2.6764   -8.4478    0.0000 C   0  0  0  0  0  0  0  0  0  0  0  0
   -2.8885   -4.7684    0.0000 C   0  0  0  0  0  0  0  0  0  0  0  0
   -2.0746   -3.5992    0.0000 C   0  0  0  0  0  0  0  0  0  0  0  0
   -2.8197   -3.9431    0.0000 C   0  0  0  0  0  0  0  0  0  0  0  0
  2  3  1  0
  3  1  1  0
  4  1  1  0
  5  4  2  0
  6 12  1  0
  7  6  1  0
  8  7  1  0
  9  6  2  0
 10  9  1  0
 11  1  1  0
 12 13  1  0
 13 17  1  0
 14 11  1  0
 15  2  1  0
 16  3  2  0
 17 19  2  0
 18 14  1  0
 19 25  1  0
 20 24  2  0
 21 15  1  0
 22  5  1  0
 23 18  1  0
 24 21  1  0
 25 21  2  0
 26 11  2  0
 27 12  2  0
 28 13  2  0
 29 14  2  0
 30 23  2  0
 31 23  1  0
 32 22  1  0
 33 32  1  0
 34 28  1  0
 35 26  1  0
 36 34  2  0
 37 35  2  0
 38 33  1  0
 39 31  2  0
 40 30  1  0
 41 39  1  0
  2  5  1  0
 37 29  1  0
 17 20  1  0
 41 40  2  0
 27 36  1  0
  8 10  2  0
M  END
>  <From>  (1) 
www.bindingDB.org

>  <BindingDB Reactant_set_id>  (1) 
51185911

>  <Ligand InChI>  (1) 
InChI=1S/C33H31N7O/c1-2-3-17-31-36-40(30-16-10-7-13-27(30)22-24-11-5-4-6-12-24)33(41)39(31)23-25-18-20-26(21-19-25)28-14-8-9-15-29(28)32-34-37-38-35-32/h4-16,18-21H,2-3,17,22-23H2,1H3,(H,34,35,37,38)

>  <Ligand InChI Key>  (1) 
FCLZPSNCFZACFI-UHFFFAOYSA-N

>  <BindingDB MonomerID>  (1) 
50044482

>  <BindingDB Ligand Name>  (1) 
2-(2-Benzyl-phenyl)-5-butyl-4-[2'-(2H-tetrazol-5-yl)-biphenyl-4-ylmethyl]-2,4-dihydro-[1,2,4]triazol-3-one::CHEMBL407827

>  <Target Name>  (1) 
Type-1 angiotensin II receptor

>  <Target Source Organism According to Curator or DataSource>  (1) 
Oryctolagus cuniculus

>  <Ki (nM)>  (1) 


>  <IC50 (nM)>  (1) 
 11

>  <Kd (nM)>  (1) 


>  <EC50 (nM)>  (1) 


>  <kon (M-1-s-1)>  (1) 


>  <koff (s-1)>  (1) 


>  <pH>  (1) 


>  <Temp C>  (1) 


>  <Curation/DataSource>  (1) 
ChEMBL

>  <Article DOI>  (1) 
10.1007/s00044-009-9197-5

>  <BindingDB Entry DOI>  (1) 
10.7270/Q2H41V9D

>  <PMID>  (1) 


>  <PubChem AID>  (1) 


>  <Patent Number>  (1) 


>  <Authors>  (1) 
n/a

>  <Institution>  (1) 
n/a

>  <Link to Ligand in BindingDB>  (1) 
http://www.bindingdb.org/bind/chemsearch/marvin/MolStructure.jsp?monomerid=50044482

>  <Link to Ligand-Target Pair in BindingDB>  (1) 
http://www.bindingdb.org/jsp/dbsearch/PrimarySearch_ki.jsp?energyterm=kJ/mole&tag=r21&monomerid=50044482&enzyme=Type-1+angiotensin+II+receptor&column=ki&startPg=0&Increment=50&submit=Search

>  <Ligand HET ID in PDB>  (1) 


>  <PDB ID(s) for Ligand-Target Complex>  (1) 


>  <PubChem CID of Ligand>  (1) 
14956754

>  <PubChem SID of Ligand>  (1) 
103975720

>  <ChEBI ID of Ligand>  (1) 


>  <ChEMBL ID of Ligand>  (1) 
CHEMBL407827

>  <DrugBank ID of Ligand>  (1) 


>  <IUPHAR_GRAC ID of Ligand>  (1) 


>  <KEGG ID of Ligand>  (1) 


>  <ZINC ID of Ligand>  (1) 
ZINC26575501

>  <Number of Protein Chains in Target (bigger than 1 implies a multichain complex)>  (1) 
1

>  <BindingDB Target Chain Sequence>  (1) 
MMLNSSTEDGIKRIQDDCPKAGRHNYIFVMIPTLYSIIFVVGIFGNSLAVIVIYFYMKLKTVASVFLLNLALADLCFLLTLPLWAVYTAMEYRWPFGNYLCKIASASVSFNLYASVFLLTCLSIDRYLAIVHPMKSRLRRTMLVAKVTCIIIWLLAGLASLPAIIHRNVFFIENTNITVCAFHYESQNSTLPIGLGLTKNILGFLFPFLIILTSYTLIWKALKKAYEIQKNKPRNDDIFKIIMAIVLFFFFSWVPHQIFTFLDVLIQLGVIHDCRIADIVDTAMPITICIAYFNNCLNPLFYGFLGKKFKKYFLQLLKYIPPKAKSHSNLSTKMSTLSYRPSDNVSSSSKKPVPCFEVE

>  <PDB ID(s) of Target Chain>  (1) 
6DO1,6OS0,6OS1,6OS2

>  <UniProt (SwissProt) Recommended Name of Target Chain>  (1) 
Type-1 angiotensin II receptor

>  <UniProt (SwissProt) Entry Name of Target Chain>  (1) 
AGTR1_RABIT

>  <UniProt (SwissProt) Primary ID of Target Chain>  (1) 
P34976

>  <UniProt (SwissProt) Secondary ID(s) of Target Chain>  (1) 


>  <UniProt (SwissProt) Alternative ID(s) of Target Chain>  (1) 


>  <UniProt (TrEMBL) Submitted Name of Target Chain>  (1) 


>  <UniProt (TrEMBL) Entry Name of Target Chain>  (1) 


>  <UniProt (TrEMBL) Primary ID of Target Chain>  (1) 


>  <UniProt (TrEMBL) Secondary ID(s) of Target Chain>  (1) 


>  <UniProt (TrEMBL) Alternative ID(s) of Target Chain>  (1) 


$$$$
