
     RDKit          2D

 36 41  0  0  0  0  0  0  0  0999 V2000
    8.1896  -13.5961    0.0000 N   0  0  0  0  0  0  0  0  0  0  0  0
    9.0146  -13.5961    0.0000 N   0  0  0  0  0  0  0  0  0  0  0  0
    9.2700  -12.8138    0.0000 C   0  0  0  0  0  0  0  0  0  0  0  0
    8.6021  -12.3245    0.0000 N   0  0  0  0  0  0  0  0  0  0  0  0
    7.9342  -12.8138    0.0000 N   0  0  0  0  0  0  0  0  0  0  0  0
    7.9009   -8.1616    0.0000 N   0  0  0  0  0  0  0  0  0  0  0  0
    8.6140   -7.7481    0.0000 C   0  0  0  0  0  0  0  0  0  0  0  0
    8.6108   -6.9166    0.0000 C   0  0  0  0  0  0  0  0  0  0  0  0
    7.8988   -6.5080    0.0000 C   0  0  0  0  0  0  0  0  0  0  0  0
    7.1847   -7.7486    0.0000 C   0  0  0  0  0  0  0  0  0  0  0  0
    7.1816   -6.9239    0.0000 C   0  0  0  0  0  0  0  0  0  0  0  0
    6.3962   -6.6720    0.0000 N   0  0  0  0  0  0  0  0  0  0  0  0
    5.9139   -7.3410    0.0000 C   0  0  0  0  0  0  0  0  0  0  0  0
    6.4014   -8.0063    0.0000 N   0  0  0  0  0  0  0  0  0  0  0  0
    5.0889   -7.3443    0.0000 C   0  0  0  0  0  0  0  0  0  0  0  0
    4.6736   -6.6313    0.0000 C   0  0  0  0  0  0  0  0  0  0  0  0
    7.8970   -5.6829    0.0000 C   0  0  0  0  0  0  0  0  0  0  0  0
    9.3298   -8.1585    0.0000 C   0  0  0  0  0  0  0  0  0  0  0  0
    6.3918   -8.8282    0.0000 C   0  0  0  0  0  0  0  0  0  0  0  0
    7.1015   -9.2490    0.0000 C   0  0  0  0  0  0  0  0  0  0  0  0
    7.0883  -10.0721    0.0000 C   0  0  0  0  0  0  0  0  0  0  0  0
    7.7972  -10.4976    0.0000 C   0  0  0  0  0  0  0  0  0  0  0  0
    7.8149   -8.8422    0.0000 C   0  0  0  0  0  0  0  0  0  0  0  0
    8.5243   -9.2592    0.0000 C   0  0  0  0  0  0  0  0  0  0  0  0
    8.5205  -10.0841    0.0000 C   0  0  0  0  0  0  0  0  0  0  0  0
    9.3038  -10.3427    0.0000 N   0  0  0  0  0  0  0  0  0  0  0  0
    9.7919   -9.6776    0.0000 C   0  0  0  0  0  0  0  0  0  0  0  0
    9.3100   -9.0080    0.0000 C   0  0  0  0  0  0  0  0  0  0  0  0
    9.2941  -11.1675    0.0000 C   0  0  0  0  0  0  0  0  0  0  0  0
   10.0037  -11.5884    0.0000 C   0  0  0  0  0  0  0  0  0  0  0  0
    9.9903  -12.4114    0.0000 C   0  0  0  0  0  0  0  0  0  0  0  0
   10.6991  -12.8322    0.0000 C   0  0  0  0  0  0  0  0  0  0  0  0
   11.4194  -12.4280    0.0000 C   0  0  0  0  0  0  0  0  0  0  0  0
   11.4265  -11.5988    0.0000 C   0  0  0  0  0  0  0  0  0  0  0  0
   10.7172  -11.1817    0.0000 C   0  0  0  0  0  0  0  0  0  0  0  0
    8.5748  -11.5716    0.0000 O   0  0  0  0  0  0  0  0  0  0  0  0
  3  4  2  0
  7 18  1  0
  8  9  1  0
 14 19  1  0
  9 11  2  0
 19 20  1  0
 10 11  1  0
 20 21  2  0
  4  5  1  0
 21 22  1  0
 22 25  2  0
  5  1  2  0
 24 23  2  0
 23 20  1  0
 24 25  1  0
  1  2  1  0
 10  6  2  0
 11 12  1  0
 12 13  2  0
 25 26  1  0
 26 27  1  0
 27 28  1  0
 28 24  1  0
 13 14  1  0
 26 29  1  0
 14 10  1  0
 29 30  1  0
  6  7  1  0
 30 31  1  0
 13 15  1  0
 31 32  2  0
  2  3  1  0
 32 33  1  0
 15 16  1  0
 33 34  2  0
  7  8  2  0
 34 35  1  0
 35 30  2  0
  9 17  1  0
 29 36  2  0
 31  3  1  0
M  END
>  <From>  (1) 
www.bindingDB.org

>  <BindingDB Reactant_set_id>  (1) 
50062162

>  <Ligand InChI>  (1) 
InChI=1S/C27H26N8O/c1-4-23-29-24-16(2)13-17(3)28-26(24)35(23)15-18-9-10-22-19(14-18)11-12-34(22)27(36)21-8-6-5-7-20(21)25-30-32-33-31-25/h5-10,13-14H,4,11-12,15H2,1-3H3,(H,30,31,32,33)

>  <Ligand InChI Key>  (1) 
VAEBNAZFCFYVNW-UHFFFAOYSA-N

>  <BindingDB MonomerID>  (1) 
50043426

>  <BindingDB Ligand Name>  (1) 
CHEMBL133654::[5-(2-Ethyl-5,7-dimethyl-3H-imidazo[4,5-b]pyridin-4-ylmethyl)-2,3-dihydro-indol-1-yl]-[2-(1H-tetrazol-5-yl)-phenyl]-methanone

>  <Target Name>  (1) 
Type-1 angiotensin II receptor

>  <Target Source Organism According to Curator or DataSource>  (1) 
Oryctolagus cuniculus

>  <Ki (nM)>  (1) 


>  <IC50 (nM)>  (1) 
 780

>  <Kd (nM)>  (1) 


>  <EC50 (nM)>  (1) 


>  <kon (M-1-s-1)>  (1) 


>  <koff (s-1)>  (1) 


>  <pH>  (1) 


>  <Temp C>  (1) 


>  <Curation/DataSource>  (1) 
ChEMBL

>  <Article DOI>  (1) 
10.1021/jm00078a013

>  <BindingDB Entry DOI>  (1) 
10.7270/Q26M35X0

>  <PMID>  (1) 
8277505

>  <PubChem AID>  (1) 


>  <Patent Number>  (1) 


>  <Authors>  (1) 
Dhanoa, DS; Bagley, SW; Chang, RS; Lotti, VJ; Chen, TB; Kivlighn, SD; Zingaro, GJ; Siegl, PK; Patchett, AA; Greenlee, WJ

>  <Institution>  (1) 
Merck Research Laboratories

>  <Link to Ligand in BindingDB>  (1) 
http://www.bindingdb.org/bind/chemsearch/marvin/MolStructure.jsp?monomerid=50043426

>  <Link to Ligand-Target Pair in BindingDB>  (1) 
http://www.bindingdb.org/jsp/dbsearch/PrimarySearch_ki.jsp?energyterm=kJ/mole&tag=r21&monomerid=50043426&enzyme=Type-1+angiotensin+II+receptor&column=ki&startPg=0&Increment=50&submit=Search

>  <Ligand HET ID in PDB>  (1) 


>  <PDB ID(s) for Ligand-Target Complex>  (1) 


>  <PubChem CID of Ligand>  (1) 
10435200

>  <PubChem SID of Ligand>  (1) 
103974854

>  <ChEBI ID of Ligand>  (1) 


>  <ChEMBL ID of Ligand>  (1) 
CHEMBL133654

>  <DrugBank ID of Ligand>  (1) 


>  <IUPHAR_GRAC ID of Ligand>  (1) 


>  <KEGG ID of Ligand>  (1) 


>  <ZINC ID of Ligand>  (1) 
ZINC13732404

>  <Number of Protein Chains in Target (bigger than 1 implies a multichain complex)>  (1) 
1

>  <BindingDB Target Chain Sequence>  (1) 
MMLNSSTEDGIKRIQDDCPKAGRHNYIFVMIPTLYSIIFVVGIFGNSLAVIVIYFYMKLKTVASVFLLNLALADLCFLLTLPLWAVYTAMEYRWPFGNYLCKIASASVSFNLYASVFLLTCLSIDRYLAIVHPMKSRLRRTMLVAKVTCIIIWLLAGLASLPAIIHRNVFFIENTNITVCAFHYESQNSTLPIGLGLTKNILGFLFPFLIILTSYTLIWKALKKAYEIQKNKPRNDDIFKIIMAIVLFFFFSWVPHQIFTFLDVLIQLGVIHDCRIADIVDTAMPITICIAYFNNCLNPLFYGFLGKKFKKYFLQLLKYIPPKAKSHSNLSTKMSTLSYRPSDNVSSSSKKPVPCFEVE

>  <PDB ID(s) of Target Chain>  (1) 
6DO1,6OS0,6OS1,6OS2

>  <UniProt (SwissProt) Recommended Name of Target Chain>  (1) 
Type-1 angiotensin II receptor

>  <UniProt (SwissProt) Entry Name of Target Chain>  (1) 
AGTR1_RABIT

>  <UniProt (SwissProt) Primary ID of Target Chain>  (1) 
P34976

>  <UniProt (SwissProt) Secondary ID(s) of Target Chain>  (1) 


>  <UniProt (SwissProt) Alternative ID(s) of Target Chain>  (1) 


>  <UniProt (TrEMBL) Submitted Name of Target Chain>  (1) 


>  <UniProt (TrEMBL) Entry Name of Target Chain>  (1) 


>  <UniProt (TrEMBL) Primary ID of Target Chain>  (1) 


>  <UniProt (TrEMBL) Secondary ID(s) of Target Chain>  (1) 


>  <UniProt (TrEMBL) Alternative ID(s) of Target Chain>  (1) 


$$$$
