
     RDKit          2D

 34 37  0  0  0  0  0  0  0  0999 V2000
    1.2374   -1.5623    0.0000 N   0  0  0  0  0  0  0  0  0  0  0  0
    1.6623   -0.2917    0.0000 N   0  0  0  0  0  0  0  0  0  0  0  0
    0.5749   -1.0749    0.0000 C   0  0  0  0  0  0  0  0  0  0  0  0
    0.8374   -0.2917    0.0000 C   0  0  0  0  0  0  0  0  0  0  0  0
    1.9040   -1.0874    0.0000 C   0  0  0  0  0  0  0  0  0  0  0  0
    4.7787   -3.6538    0.0000 C   0  0  0  0  0  0  0  0  0  0  0  0
    4.0620   -4.0662    0.0000 C   0  0  0  0  0  0  0  0  0  0  0  0
    4.7787   -2.8289    0.0000 C   0  0  0  0  0  0  0  0  0  0  0  0
    1.2249   -2.3872    0.0000 C   0  0  0  0  0  0  0  0  0  0  0  0
   -0.2125   -1.3165    0.0000 O   0  0  0  0  0  0  0  0  0  0  0  0
    3.3538   -3.6496    0.0000 C   0  0  0  0  0  0  0  0  0  0  0  0
    0.8291    0.5332    0.0000 C   0  0  0  0  0  0  0  0  0  0  0  0
    4.0745   -2.4164    0.0000 O   0  0  0  0  0  0  0  0  0  0  0  0
    2.6372   -4.0537    0.0000 C   0  0  0  0  0  0  0  0  0  0  0  0
    3.3621   -2.8164    0.0000 C   0  0  0  0  0  0  0  0  0  0  0  0
    1.9373   -2.8122    0.0000 C   0  0  0  0  0  0  0  0  0  0  0  0
    5.4994   -2.4289    0.0000 O   0  0  0  0  0  0  0  0  0  0  0  0
    0.0375   -0.0750    0.0000 C   0  0  0  0  0  0  0  0  0  0  0  0
    2.6914   -1.3498    0.0000 C   0  0  0  0  0  0  0  0  0  0  0  0
    2.6539   -2.4039    0.0000 C   0  0  0  0  0  0  0  0  0  0  0  0
    1.9248   -3.6371    0.0000 C   0  0  0  0  0  0  0  0  0  0  0  0
    5.4911   -4.0787    0.0000 C   0  0  0  0  0  0  0  0  0  0  0  0
    4.0537   -4.8911    0.0000 C   0  0  0  0  0  0  0  0  0  0  0  0
    1.5415    0.9582    0.0000 C   0  0  0  0  0  0  0  0  0  0  0  0
    0.1125    0.9457    0.0000 C   0  0  0  0  0  0  0  0  0  0  0  0
    3.3121   -0.8041    0.0000 C   0  0  0  0  0  0  0  0  0  0  0  0
   -0.1750    0.7249    0.0000 C   0  0  0  0  0  0  0  0  0  0  0  0
    4.0912   -1.0666    0.0000 C   0  0  0  0  0  0  0  0  0  0  0  0
    4.7662   -5.3036    0.0000 C   0  0  0  0  0  0  0  0  0  0  0  0
    5.4786   -4.9036    0.0000 C   0  0  0  0  0  0  0  0  0  0  0  0
    4.7120   -0.5166    0.0000 C   0  0  0  0  0  0  0  0  0  0  0  0
    1.5415    1.7748    0.0000 C   0  0  0  0  0  0  0  0  0  0  0  0
    0.1125    1.7706    0.0000 C   0  0  0  0  0  0  0  0  0  0  0  0
    0.8249    2.1872    0.0000 C   0  0  0  0  0  0  0  0  0  0  0  0
  2  5  2  0
  3  1  1  0
  4  3  1  0
  5  1  1  0
  6  7  2  0
  7 11  1  0
  8  6  1  0
  9  1  1  0
 10  3  2  0
 11 14  2  0
 12  4  1  0
 13  8  2  0
 14 21  1  0
 15 20  2  0
 16  9  1  0
 17  8  1  0
 18  4  1  0
 19  5  1  0
 20 16  1  0
 21 16  2  0
 22  6  1  0
 23  7  1  0
 24 12  1  0
 25 12  1  0
 26 19  1  0
 27 18  1  0
 28 26  1  0
 29 23  2  0
 30 29  1  0
 31 28  1  0
 32 24  1  0
 33 25  1  0
 34 33  1  0
  4  2  1  0
 15 11  1  0
 34 32  1  0
 22 30  2  0
M  END
>  <From>  (1) 
www.bindingDB.org

>  <BindingDB Reactant_set_id>  (1) 
50467365

>  <Ligand InChI>  (1) 
InChI=1S/C29H36N2O3/c1-3-5-15-26-30-29(4-2,23-11-7-6-8-12-23)28(34)31(26)20-21-16-18-22(19-17-21)24-13-9-10-14-25(24)27(32)33/h9-10,13-14,16-19,23H,3-8,11-12,15,20H2,1-2H3,(H,32,33)

>  <Ligand InChI Key>  (1) 
BBSMJWBAZLIZEK-UHFFFAOYSA-N

>  <BindingDB MonomerID>  (1) 
50282269

>  <BindingDB Ligand Name>  (1) 
4'-(2-Butyl-4-cyclohexyl-4-ethyl-5-oxo-4,5-dihydro-imidazol-1-ylmethyl)-biphenyl-2-carboxylic acid::CHEMBL275437

>  <Target Name>  (1) 
Type-1 angiotensin II receptor B

>  <Target Source Organism According to Curator or DataSource>  (1) 
Rattus

>  <Ki (nM)>  (1) 


>  <IC50 (nM)>  (1) 
 52

>  <Kd (nM)>  (1) 


>  <EC50 (nM)>  (1) 


>  <kon (M-1-s-1)>  (1) 


>  <koff (s-1)>  (1) 


>  <pH>  (1) 


>  <Temp C>  (1) 


>  <Curation/DataSource>  (1) 
ChEMBL

>  <Article DOI>  (1) 
10.1016/S0960-894X(01)81140-9

>  <BindingDB Entry DOI>  (1) 
10.7270/Q2M045CQ

>  <PMID>  (1) 


>  <PubChem AID>  (1) 


>  <Patent Number>  (1) 


>  <Authors>  (1) 
Perreaut, P; Cl&#xe9;ment, J; Muneaux, C; Muneaux, Y; Cazaubon, C; Gougat, J; Guiraudou, P; Lacour, C; Nisato, D; Fur, GL; Breliere, JC

>  <Institution>  (1) 
TBA

>  <Link to Ligand in BindingDB>  (1) 
http://www.bindingdb.org/bind/chemsearch/marvin/MolStructure.jsp?monomerid=50282269

>  <Link to Ligand-Target Pair in BindingDB>  (1) 
http://www.bindingdb.org/jsp/dbsearch/PrimarySearch_ki.jsp?energyterm=kJ/mole&tag=r21&monomerid=50282269&enzyme=Type-1+angiotensin+II+receptor+B&column=ki&startPg=0&Increment=50&submit=Search

>  <Ligand HET ID in PDB>  (1) 


>  <PDB ID(s) for Ligand-Target Complex>  (1) 


>  <PubChem CID of Ligand>  (1) 
19422629

>  <PubChem SID of Ligand>  (1) 
104123943

>  <ChEBI ID of Ligand>  (1) 


>  <ChEMBL ID of Ligand>  (1) 
CHEMBL275437

>  <DrugBank ID of Ligand>  (1) 


>  <IUPHAR_GRAC ID of Ligand>  (1) 


>  <KEGG ID of Ligand>  (1) 


>  <ZINC ID of Ligand>  (1) 
ZINC29412414

>  <Number of Protein Chains in Target (bigger than 1 implies a multichain complex)>  (1) 
1

>  <BindingDB Target Chain Sequence>  (1) 
MTLNSSTEDGIKRIQDDCPKAGRHNYIFVMIPTLYSIIFVVGIFGNSLVVIVIYFYMKLKTVASVFLLNLALADLCFLLTLPLWAVYTAMEYRWPFGNHLCKIASASVSFNLYASVFLLTCLSIDRYLAIVHPMKSRLRRTMLVAKVTCIIIWLMAGLASLPAVIYRNVYFIENTNITVCAFHYESQNSTLPIGLGLTKNILGFVFPFLIILTSYTLIWKALKKAYKIQKNTPRNDDIFRIIMAIVLFFFFSWVPHQIFTFLDVLIQLGIIRDCEIADIVDTAMPITICIAYFNNCLNPLFYGFLGKKFKKYFLQLLKYIPPTAKSHAGLSTKMSTLSYRPSDNMSSSAKKSASFFEVE

>  <PDB ID(s) of Target Chain>  (1) 


>  <UniProt (SwissProt) Recommended Name of Target Chain>  (1) 
Type-1 angiotensin II receptor B

>  <UniProt (SwissProt) Entry Name of Target Chain>  (1) 
AGTRB_RAT

>  <UniProt (SwissProt) Primary ID of Target Chain>  (1) 
P29089

>  <UniProt (SwissProt) Secondary ID(s) of Target Chain>  (1) 


>  <UniProt (SwissProt) Alternative ID(s) of Target Chain>  (1) 


>  <UniProt (TrEMBL) Submitted Name of Target Chain>  (1) 


>  <UniProt (TrEMBL) Entry Name of Target Chain>  (1) 


>  <UniProt (TrEMBL) Primary ID of Target Chain>  (1) 


>  <UniProt (TrEMBL) Secondary ID(s) of Target Chain>  (1) 


>  <UniProt (TrEMBL) Alternative ID(s) of Target Chain>  (1) 


$$$$
