
     RDKit          2D

 32 34  0  0  0  0  0  0  0  0999 V2000
    2.6597   -2.4175    0.0000 N   0  0  0  0  0  0  0  0  0  0  0  0
    3.3319   -2.8977    0.0000 C   0  0  0  0  0  0  0  0  0  0  0  0
    4.8016   -0.3424    0.0000 C   0  0  0  0  0  0  0  0  0  0  0  0
    2.2463   -3.6868    0.0000 N   0  0  0  0  0  0  0  0  0  0  0  0
    4.0834    0.0709    0.0000 C   0  0  0  0  0  0  0  0  0  0  0  0
    4.7641   -2.8852    0.0000 C   0  0  0  0  0  0  0  0  0  0  0  0
    1.9958   -2.8977    0.0000 C   0  0  0  0  0  0  0  0  0  0  0  0
    4.0459   -2.4843    0.0000 C   0  0  0  0  0  0  0  0  0  0  0  0
    3.3737   -1.1691    0.0000 C   0  0  0  0  0  0  0  0  0  0  0  0
    2.6597   -1.5908    0.0000 C   0  0  0  0  0  0  0  0  0  0  0  0
    3.3695   -0.3507    0.0000 C   0  0  0  0  0  0  0  0  0  0  0  0
    3.0731   -3.6868    0.0000 C   0  0  0  0  0  0  0  0  0  0  0  0
    5.5156    0.0709    0.0000 C   0  0  0  0  0  0  0  0  0  0  0  0
    5.4738   -2.4676    0.0000 C   0  0  0  0  0  0  0  0  0  0  0  0
    4.8016   -1.1691    0.0000 C   0  0  0  0  0  0  0  0  0  0  0  0
    5.4863   -4.1252    0.0000 C   0  0  0  0  0  0  0  0  0  0  0  0
    6.2421   -3.7953    0.0000 S   0  0  0  0  0  0  0  0  0  0  0  0
    4.7724   -3.7119    0.0000 C   0  0  0  0  0  0  0  0  0  0  0  0
    4.0877   -1.5825    0.0000 C   0  0  0  0  0  0  0  0  0  0  0  0
    6.7890   -4.4008    0.0000 C   0  0  0  0  0  0  0  0  0  0  0  0
    5.5156    0.8977    0.0000 O   0  0  0  0  0  0  0  0  0  0  0  0
    5.4655   -1.6326    0.0000 O   0  0  0  0  0  0  0  0  0  0  0  0
    5.5740   -4.9394    0.0000 C   0  0  0  0  0  0  0  0  0  0  0  0
    6.3757   -5.1148    0.0000 C   0  0  0  0  0  0  0  0  0  0  0  0
    4.0751    0.8977    0.0000 Cl  0  0  0  0  0  0  0  0  0  0  0  0
    2.6472    0.0626    0.0000 Cl  0  0  0  0  0  0  0  0  0  0  0  0
    6.2296   -0.3382    0.0000 O   0  0  0  0  0  0  0  0  0  0  0  0
    6.1920   -2.8684    0.0000 O   0  0  0  0  0  0  0  0  0  0  0  0
    1.2776   -2.4843    0.0000 C   0  0  0  0  0  0  0  0  0  0  0  0
    0.5553   -2.8977    0.0000 C   0  0  0  0  0  0  0  0  0  0  0  0
   -0.1586   -2.4843    0.0000 C   0  0  0  0  0  0  0  0  0  0  0  0
   -0.8726   -2.8977    0.0000 C   0  0  0  0  0  0  0  0  0  0  0  0
  2  1  1  0
  3 15  2  0
  4  7  2  0
  5 11  2  0
  6  8  2  0
  7  1  1  0
  8  2  1  0
  9 10  1  0
 10  1  1  0
 11  9  1  0
 12  2  2  0
 13  3  1  0
 14  6  1  0
 15 19  1  0
 16 18  1  0
 17 16  1  0
 18  6  1  0
 19  9  2  0
 20 17  1  0
 21 13  2  0
 22 14  2  0
 23 16  2  0
 24 23  1  0
 25  5  1  0
 26 11  1  0
 27 13  1  0
 28 14  1  0
 29  7  1  0
 30 29  1  0
 31 30  1  0
 32 31  1  0
 12  4  1  0
  3  5  1  0
 20 24  2  0
M  END
>  <From>  (1) 
www.bindingDB.org

>  <BindingDB Reactant_set_id>  (1) 
50467530

>  <Ligand InChI>  (1) 
InChI=1S/C23H22Cl2N2O4S/c1-2-3-6-19-26-12-16(10-15(22(28)29)11-17-5-4-9-32-17)27(19)13-14-7-8-18(23(30)31)21(25)20(14)24/h4-5,7-10,12H,2-3,6,11,13H2,1H3,(H,28,29)(H,30,31)/b15-10+

>  <Ligand InChI Key>  (1) 
WRHORTRJSBLTFQ-XNTDXEJSSA-N

>  <BindingDB MonomerID>  (1) 
50282363

>  <BindingDB Ligand Name>  (1) 
4-[2-Butyl-5-((E)-2-carboxy-3-thiophen-2-yl-propenyl)-imidazol-1-ylmethyl]-2,3-dichloro-benzoic acid::CHEMBL317343

>  <Target Name>  (1) 
Type-1 angiotensin II receptor B

>  <Target Source Organism According to Curator or DataSource>  (1) 
Rattus

>  <Ki (nM)>  (1) 


>  <IC50 (nM)>  (1) 
 0.16

>  <Kd (nM)>  (1) 


>  <EC50 (nM)>  (1) 


>  <kon (M-1-s-1)>  (1) 


>  <koff (s-1)>  (1) 


>  <pH>  (1) 


>  <Temp C>  (1) 


>  <Curation/DataSource>  (1) 
ChEMBL

>  <Article DOI>  (1) 
10.1016/S0960-894X(01)81116-1

>  <BindingDB Entry DOI>  (1) 
10.7270/Q29G5MRF

>  <PMID>  (1) 


>  <PubChem AID>  (1) 


>  <Patent Number>  (1) 


>  <Authors>  (1) 
Weinstock, J; Hill, DT; Keenan, RM; Franz, RG; Gaitanopoulos, DE; Girard, GR; Eggleston, DS; Aiyar, N; Griffin, E; Ohlstein, E; Brooks, DP; Gellai, M; Frederickson, TA; Weidley, EF; Edwards, RM

>  <Institution>  (1) 
TBA

>  <Link to Ligand in BindingDB>  (1) 
http://www.bindingdb.org/bind/chemsearch/marvin/MolStructure.jsp?monomerid=50282363

>  <Link to Ligand-Target Pair in BindingDB>  (1) 
http://www.bindingdb.org/jsp/dbsearch/PrimarySearch_ki.jsp?energyterm=kJ/mole&tag=r21&monomerid=50282363&enzyme=Type-1+angiotensin+II+receptor+B&column=ki&startPg=0&Increment=50&submit=Search

>  <Ligand HET ID in PDB>  (1) 


>  <PDB ID(s) for Ligand-Target Complex>  (1) 


>  <PubChem CID of Ligand>  (1) 
44327716

>  <PubChem SID of Ligand>  (1) 
104124037

>  <ChEBI ID of Ligand>  (1) 


>  <ChEMBL ID of Ligand>  (1) 
CHEMBL317343

>  <DrugBank ID of Ligand>  (1) 


>  <IUPHAR_GRAC ID of Ligand>  (1) 


>  <KEGG ID of Ligand>  (1) 


>  <ZINC ID of Ligand>  (1) 
ZINC26672886

>  <Number of Protein Chains in Target (bigger than 1 implies a multichain complex)>  (1) 
1

>  <BindingDB Target Chain Sequence>  (1) 
MTLNSSTEDGIKRIQDDCPKAGRHNYIFVMIPTLYSIIFVVGIFGNSLVVIVIYFYMKLKTVASVFLLNLALADLCFLLTLPLWAVYTAMEYRWPFGNHLCKIASASVSFNLYASVFLLTCLSIDRYLAIVHPMKSRLRRTMLVAKVTCIIIWLMAGLASLPAVIYRNVYFIENTNITVCAFHYESQNSTLPIGLGLTKNILGFVFPFLIILTSYTLIWKALKKAYKIQKNTPRNDDIFRIIMAIVLFFFFSWVPHQIFTFLDVLIQLGIIRDCEIADIVDTAMPITICIAYFNNCLNPLFYGFLGKKFKKYFLQLLKYIPPTAKSHAGLSTKMSTLSYRPSDNMSSSAKKSASFFEVE

>  <PDB ID(s) of Target Chain>  (1) 


>  <UniProt (SwissProt) Recommended Name of Target Chain>  (1) 
Type-1 angiotensin II receptor B

>  <UniProt (SwissProt) Entry Name of Target Chain>  (1) 
AGTRB_RAT

>  <UniProt (SwissProt) Primary ID of Target Chain>  (1) 
P29089

>  <UniProt (SwissProt) Secondary ID(s) of Target Chain>  (1) 


>  <UniProt (SwissProt) Alternative ID(s) of Target Chain>  (1) 


>  <UniProt (TrEMBL) Submitted Name of Target Chain>  (1) 


>  <UniProt (TrEMBL) Entry Name of Target Chain>  (1) 


>  <UniProt (TrEMBL) Primary ID of Target Chain>  (1) 


>  <UniProt (TrEMBL) Secondary ID(s) of Target Chain>  (1) 


>  <UniProt (TrEMBL) Alternative ID(s) of Target Chain>  (1) 


$$$$
