
     RDKit          2D

 30 33  0  0  0  0  0  0  0  0999 V2000
    2.2225   -0.9681    0.0000 C   0  0  0  0  0  0  0  0  0  0  0  0
    2.4287    0.5269    0.0000 N   0  0  0  0  0  0  0  0  0  0  0  0
   -1.8329    0.6300    0.0000 C   0  0  0  0  0  0  0  0  0  0  0  0
    1.8730   -0.2120    0.0000 N   0  0  0  0  0  0  0  0  0  0  0  0
    3.2020   -0.0573    0.0000 N   0  0  0  0  0  0  0  0  0  0  0  0
   -2.5374    0.2062    0.0000 C   0  0  0  0  0  0  0  0  0  0  0  0
   -1.8329    1.4548    0.0000 C   0  0  0  0  0  0  0  0  0  0  0  0
    3.0415   -0.8650    0.0000 N   0  0  0  0  0  0  0  0  0  0  0  0
   -2.5546    1.8558    0.0000 N   0  0  0  0  0  0  0  0  0  0  0  0
    1.8101   -1.6840    0.0000 C   0  0  0  0  0  0  0  0  0  0  0  0
    1.0998   -2.0850    0.0000 C   0  0  0  0  0  0  0  0  0  0  0  0
   -3.2591    0.6128    0.0000 C   0  0  0  0  0  0  0  0  0  0  0  0
   -1.0310    0.4124    0.0000 C   0  0  0  0  0  0  0  0  0  0  0  0
   -2.5374   -0.6186    0.0000 O   0  0  0  0  0  0  0  0  0  0  0  0
   -3.2591    1.4434    0.0000 C   0  0  0  0  0  0  0  0  0  0  0  0
    0.3838   -1.6668    0.0000 C   0  0  0  0  0  0  0  0  0  0  0  0
   -0.8190    1.2143    0.0000 O   0  0  0  0  0  0  0  0  0  0  0  0
   -0.3265   -2.0678    0.0000 C   0  0  0  0  0  0  0  0  0  0  0  0
    0.4010   -0.8420    0.0000 C   0  0  0  0  0  0  0  0  0  0  0  0
   -1.7298   -0.4010    0.0000 C   0  0  0  0  0  0  0  0  0  0  0  0
   -1.0253   -0.8248    0.0000 C   0  0  0  0  0  0  0  0  0  0  0  0
   -1.0424   -1.6496    0.0000 C   0  0  0  0  0  0  0  0  0  0  0  0
   -0.3093   -0.4182    0.0000 C   0  0  0  0  0  0  0  0  0  0  0  0
   -1.1284    1.8673    0.0000 C   0  0  0  0  0  0  0  0  0  0  0  0
    2.5260   -2.1022    0.0000 C   0  0  0  0  0  0  0  0  0  0  0  0
    1.0884   -2.9098    0.0000 C   0  0  0  0  0  0  0  0  0  0  0  0
   -0.3207    0.0000    0.0000 C   0  0  0  0  0  0  0  0  0  0  0  0
   -3.9809    1.8501    0.0000 C   0  0  0  0  0  0  0  0  0  0  0  0
    2.5146   -2.9270    0.0000 C   0  0  0  0  0  0  0  0  0  0  0  0
    1.7929   -3.3337    0.0000 C   0  0  0  0  0  0  0  0  0  0  0  0
  2  4  1  0
  3  6  2  0
  4  1  1  0
  5  8  1  0
  6 14  1  0
  7  3  1  0
  8  1  2  0
  9 15  1  0
 10  1  1  0
 11 10  1  0
 12  6  1  0
 13  3  1  0
 14 20  1  0
 15 12  2  0
 16 11  1  0
 17 13  2  0
 18 16  2  0
 19 16  1  0
 20 21  1  0
 21 23  1  0
 22 18  1  0
 23 19  2  0
 24  7  1  0
 25 10  2  0
 26 11  2  0
 27 13  1  0
 28 15  1  0
 29 25  1  0
 30 29  2  0
  2  5  2  0
 30 26  1  0
 22 21  2  0
  9  7  2  0
M  END
>  <From>  (1) 
www.bindingDB.org

>  <BindingDB Reactant_set_id>  (1) 
50035267

>  <Ligand InChI>  (1) 
InChI=1S/C23H21N5O2/c1-14-12-21(22(16(3)29)15(2)24-14)30-13-17-8-10-18(11-9-17)19-6-4-5-7-20(19)23-25-27-28-26-23/h4-12H,13H2,1-3H3,(H,25,26,27,28)

>  <Ligand InChI Key>  (1) 
LHXAGPCKQWWRNE-UHFFFAOYSA-N

>  <BindingDB MonomerID>  (1) 
50047131

>  <BindingDB Ligand Name>  (1) 
1-{2,6-Dimethyl-4-[2'-(1H-tetrazol-5-yl)-biphenyl-4-ylmethoxy]-pyridin-3-yl}-ethanone::CHEMBL22908

>  <Target Name>  (1) 
Type-1 angiotensin II receptor

>  <Target Source Organism According to Curator or DataSource>  (1) 
Cavia porcellus

>  <Ki (nM)>  (1) 


>  <IC50 (nM)>  (1) 
 30

>  <Kd (nM)>  (1) 


>  <EC50 (nM)>  (1) 


>  <kon (M-1-s-1)>  (1) 


>  <koff (s-1)>  (1) 


>  <pH>  (1) 


>  <Temp C>  (1) 


>  <Curation/DataSource>  (1) 
ChEMBL

>  <Article DOI>  (1) 
10.1021/jm00061a016

>  <BindingDB Entry DOI>  (1) 
10.7270/Q2GM86CM

>  <PMID>  (1) 
8487261

>  <PubChem AID>  (1) 


>  <Patent Number>  (1) 


>  <Authors>  (1) 
Bradbury, RH; Allott, CP; Dennis, M; Girdwood, JA; Kenny, PW; Major, JS; Oldham, AA; Ratcliffe, AH; Rivett, JE; Roberts, DA

>  <Institution>  (1) 
Zeneca Pharmaceuticals

>  <Link to Ligand in BindingDB>  (1) 
http://www.bindingdb.org/bind/chemsearch/marvin/MolStructure.jsp?monomerid=50047131

>  <Link to Ligand-Target Pair in BindingDB>  (1) 
http://www.bindingdb.org/jsp/dbsearch/PrimarySearch_ki.jsp?energyterm=kJ/mole&tag=r21&monomerid=50047131&enzyme=Type-1+angiotensin+II+receptor&column=ki&startPg=0&Increment=50&submit=Search

>  <Ligand HET ID in PDB>  (1) 


>  <PDB ID(s) for Ligand-Target Complex>  (1) 


>  <PubChem CID of Ligand>  (1) 
14950497

>  <PubChem SID of Ligand>  (1) 
103977819

>  <ChEBI ID of Ligand>  (1) 


>  <ChEMBL ID of Ligand>  (1) 
CHEMBL22908

>  <DrugBank ID of Ligand>  (1) 


>  <IUPHAR_GRAC ID of Ligand>  (1) 


>  <KEGG ID of Ligand>  (1) 


>  <ZINC ID of Ligand>  (1) 
ZINC13826878

>  <Number of Protein Chains in Target (bigger than 1 implies a multichain complex)>  (1) 
1

>  <BindingDB Target Chain Sequence>  (1) 
MILNSSTEDGIKRIQDDCPKAGRHSYIFVMIPTLYSIIFVVGIFGNSLVVIVIYFYMKLKTVASVFLLNLALADICFLLTLPLWAVYTAMEYRWPFGNYLCKIASASVSFNLYASVFLLTCLSIDRYLAIVHPMKSRLRRTMLVAKVTCVIIWLMAGLASLPAVIHRNVFFIENTNITVCAFHYESQNSTLPIGLGLTKNILGFMFPFLIILTSYTLIWKALKKAYEIQKNKPRNDDIFKIIMAIVLFFFFSWVPHQIFTFLDVLIQLGIIHDCKISDIVDTAMPITICIAYFNNCLNPLFYGFLGKKFKKYFLQLLKYIPPKAKSHSTLSTKMSTLSYRPSDNVSSSAKKPVQCFEVE

>  <PDB ID(s) of Target Chain>  (1) 
4ZUD

>  <UniProt (SwissProt) Recommended Name of Target Chain>  (1) 
Type-1 angiotensin II receptor

>  <UniProt (SwissProt) Entry Name of Target Chain>  (1) 
AGTR1_CAVPO

>  <UniProt (SwissProt) Primary ID of Target Chain>  (1) 
Q9WV26

>  <UniProt (SwissProt) Secondary ID(s) of Target Chain>  (1) 


>  <UniProt (SwissProt) Alternative ID(s) of Target Chain>  (1) 


>  <UniProt (TrEMBL) Submitted Name of Target Chain>  (1) 


>  <UniProt (TrEMBL) Entry Name of Target Chain>  (1) 


>  <UniProt (TrEMBL) Primary ID of Target Chain>  (1) 


>  <UniProt (TrEMBL) Secondary ID(s) of Target Chain>  (1) 


>  <UniProt (TrEMBL) Alternative ID(s) of Target Chain>  (1) 


$$$$
