
     RDKit          2D

 31 35  0  0  0  0  0  0  0  0999 V2000
    3.7375   -3.1750    0.0000 C   0  0  0  0  0  0  0  0  0  0  0  0
    2.9500   -3.4167    0.0000 N   0  0  0  0  0  0  0  0  0  0  0  0
    4.4000   -3.6667    0.0000 N   0  0  0  0  0  0  0  0  0  0  0  0
    4.0042   -2.3917    0.0000 S   0  0  0  0  0  0  0  0  0  0  0  0
    5.0750   -3.1917    0.0000 N   0  0  0  0  0  0  0  0  0  0  0  0
    8.4667   -5.1167    0.0000 C   0  0  0  0  0  0  0  0  0  0  0  0
    8.0500   -3.8500    0.0000 N   0  0  0  0  0  0  0  0  0  0  0  0
    7.7917   -4.6292    0.0000 N   0  0  0  0  0  0  0  0  0  0  0  0
    8.8750   -3.8417    0.0000 N   0  0  0  0  0  0  0  0  0  0  0  0
    2.3417   -2.8542    0.0000 C   0  0  0  0  0  0  0  0  0  0  0  0
    4.8292   -2.4042    0.0000 C   0  0  0  0  0  0  0  0  0  0  0  0
    9.1292   -4.6292    0.0000 N   0  0  0  0  0  0  0  0  0  0  0  0
    8.4750   -5.9417    0.0000 C   0  0  0  0  0  0  0  0  0  0  0  0
    1.5542   -3.1000    0.0000 C   0  0  0  0  0  0  0  0  0  0  0  0
    7.7625   -6.3542    0.0000 C   0  0  0  0  0  0  0  0  0  0  0  0
    0.7542   -2.9250    0.0000 C   0  0  0  0  0  0  0  0  0  0  0  0
    0.9917   -3.7125    0.0000 C   0  0  0  0  0  0  0  0  0  0  0  0
    4.3875   -4.4917    0.0000 C   0  0  0  0  0  0  0  0  0  0  0  0
    7.0500   -5.9500    0.0000 C   0  0  0  0  0  0  0  0  0  0  0  0
    2.5292   -2.0542    0.0000 O   0  0  0  0  0  0  0  0  0  0  0  0
    7.0500   -5.1167    0.0000 C   0  0  0  0  0  0  0  0  0  0  0  0
    6.3292   -6.3625    0.0000 C   0  0  0  0  0  0  0  0  0  0  0  0
    5.6167   -5.1167    0.0000 C   0  0  0  0  0  0  0  0  0  0  0  0
    6.3292   -4.7042    0.0000 C   0  0  0  0  0  0  0  0  0  0  0  0
    5.6167   -5.9500    0.0000 C   0  0  0  0  0  0  0  0  0  0  0  0
    5.3292   -1.7417    0.0000 C   0  0  0  0  0  0  0  0  0  0  0  0
    9.1875   -6.3500    0.0000 C   0  0  0  0  0  0  0  0  0  0  0  0
    7.7625   -7.1792    0.0000 C   0  0  0  0  0  0  0  0  0  0  0  0
    6.1417   -1.8417    0.0000 C   0  0  0  0  0  0  0  0  0  0  0  0
    9.1917   -7.1792    0.0000 C   0  0  0  0  0  0  0  0  0  0  0  0
    8.4792   -7.5917    0.0000 C   0  0  0  0  0  0  0  0  0  0  0  0
  2  1  2  3
  3  1  1  0
  4  1  1  0
  5  3  1  0
  6 13  1  0
  7  8  1  0
  8  6  1  0
  9 12  1  0
  2 10  1  0
 11  4  1  0
 12  6  2  0
 13 15  1  0
 14 10  1  0
 15 19  1  0
 16 14  1  0
 17 14  1  0
 18  3  1  0
 19 22  2  0
 20 10  2  0
 21 24  2  0
 22 25  1  0
 23 18  1  0
 24 23  1  0
 25 23  2  0
 26 11  1  0
 27 13  2  0
 28 15  2  0
 29 26  1  0
 30 31  2  0
 31 28  1  0
  5 11  2  0
 17 16  1  0
 19 21  1  0
 30 27  1  0
  9  7  2  0
M  END
>  <From>  (1) 
www.bindingDB.org

>  <BindingDB Reactant_set_id>  (1) 
50477634

>  <Ligand InChI>  (1) 
InChI=1S/C22H21N7OS/c1-2-19-26-29(22(31-19)23-21(30)16-11-12-16)13-14-7-9-15(10-8-14)17-5-3-4-6-18(17)20-24-27-28-25-20/h3-10,16H,2,11-13H2,1H3,(H,24,25,27,28)

>  <Ligand InChI Key>  (1) 
XUBZZUYYDOTEOD-UHFFFAOYSA-N

>  <BindingDB MonomerID>  (1) 
50287292

>  <BindingDB Ligand Name>  (1) 
CHEMBL34190::Cyclopropanecarboxylic acid [5-ethyl-3-[2'-(1H-tetrazol-5-yl)-biphenyl-4-ylmethyl]-3H-[1,3,4]thiadiazol-(2Z)-ylidene]-amide

>  <Target Name>  (1) 
Type-1 angiotensin II receptor B

>  <Target Source Organism According to Curator or DataSource>  (1) 
Rattus

>  <Ki (nM)>  (1) 


>  <IC50 (nM)>  (1) 
 6.5

>  <Kd (nM)>  (1) 


>  <EC50 (nM)>  (1) 


>  <kon (M-1-s-1)>  (1) 


>  <koff (s-1)>  (1) 


>  <pH>  (1) 


>  <Temp C>  (1) 


>  <Curation/DataSource>  (1) 
ChEMBL

>  <Article DOI>  (1) 
10.1016/S0960-894X(96)00250-8

>  <BindingDB Entry DOI>  (1) 
10.7270/Q2SN08XQ

>  <PMID>  (1) 


>  <PubChem AID>  (1) 


>  <Patent Number>  (1) 


>  <Authors>  (1) 
Hirata, T; Nomiyama, J; Sakae, N; Nishimura, K; Yokomoto, M; Inoue, S; Tamura, K; Okuhira, M; Amano, H; Nagao, Y

>  <Institution>  (1) 
TBA

>  <Link to Ligand in BindingDB>  (1) 
http://www.bindingdb.org/bind/chemsearch/marvin/MolStructure.jsp?monomerid=50287292

>  <Link to Ligand-Target Pair in BindingDB>  (1) 
http://www.bindingdb.org/jsp/dbsearch/PrimarySearch_ki.jsp?energyterm=kJ/mole&tag=r21&monomerid=50287292&enzyme=Type-1+angiotensin+II+receptor+B&column=ki&startPg=0&Increment=50&submit=Search

>  <Ligand HET ID in PDB>  (1) 


>  <PDB ID(s) for Ligand-Target Complex>  (1) 


>  <PubChem CID of Ligand>  (1) 
19029589

>  <PubChem SID of Ligand>  (1) 
104128863

>  <ChEBI ID of Ligand>  (1) 


>  <ChEMBL ID of Ligand>  (1) 
CHEMBL34190

>  <DrugBank ID of Ligand>  (1) 


>  <IUPHAR_GRAC ID of Ligand>  (1) 


>  <KEGG ID of Ligand>  (1) 


>  <ZINC ID of Ligand>  (1) 
ZINC49695285

>  <Number of Protein Chains in Target (bigger than 1 implies a multichain complex)>  (1) 
1

>  <BindingDB Target Chain Sequence>  (1) 
MTLNSSTEDGIKRIQDDCPKAGRHNYIFVMIPTLYSIIFVVGIFGNSLVVIVIYFYMKLKTVASVFLLNLALADLCFLLTLPLWAVYTAMEYRWPFGNHLCKIASASVSFNLYASVFLLTCLSIDRYLAIVHPMKSRLRRTMLVAKVTCIIIWLMAGLASLPAVIYRNVYFIENTNITVCAFHYESQNSTLPIGLGLTKNILGFVFPFLIILTSYTLIWKALKKAYKIQKNTPRNDDIFRIIMAIVLFFFFSWVPHQIFTFLDVLIQLGIIRDCEIADIVDTAMPITICIAYFNNCLNPLFYGFLGKKFKKYFLQLLKYIPPTAKSHAGLSTKMSTLSYRPSDNMSSSAKKSASFFEVE

>  <PDB ID(s) of Target Chain>  (1) 


>  <UniProt (SwissProt) Recommended Name of Target Chain>  (1) 
Type-1 angiotensin II receptor B

>  <UniProt (SwissProt) Entry Name of Target Chain>  (1) 
AGTRB_RAT

>  <UniProt (SwissProt) Primary ID of Target Chain>  (1) 
P29089

>  <UniProt (SwissProt) Secondary ID(s) of Target Chain>  (1) 


>  <UniProt (SwissProt) Alternative ID(s) of Target Chain>  (1) 


>  <UniProt (TrEMBL) Submitted Name of Target Chain>  (1) 


>  <UniProt (TrEMBL) Entry Name of Target Chain>  (1) 


>  <UniProt (TrEMBL) Primary ID of Target Chain>  (1) 


>  <UniProt (TrEMBL) Secondary ID(s) of Target Chain>  (1) 


>  <UniProt (TrEMBL) Alternative ID(s) of Target Chain>  (1) 


$$$$
