
     RDKit          2D

 30 33  0  0  0  0  0  0  0  0999 V2000
    2.9750   -4.2875    0.0000 N   0  0  0  0  0  0  0  0  0  0  0  0
    3.6375   -3.8000    0.0000 C   0  0  0  0  0  0  0  0  0  0  0  0
    2.5500   -3.0125    0.0000 N   0  0  0  0  0  0  0  0  0  0  0  0
    3.3750   -3.0167    0.0000 C   0  0  0  0  0  0  0  0  0  0  0  0
    2.3000   -3.8000    0.0000 C   0  0  0  0  0  0  0  0  0  0  0  0
    6.5375   -5.5167    0.0000 C   0  0  0  0  0  0  0  0  0  0  0  0
    5.8625   -5.0375    0.0000 N   0  0  0  0  0  0  0  0  0  0  0  0
    6.1125   -4.2500    0.0000 N   0  0  0  0  0  0  0  0  0  0  0  0
    7.2000   -5.0375    0.0000 N   0  0  0  0  0  0  0  0  0  0  0  0
    6.9375   -4.2500    0.0000 N   0  0  0  0  0  0  0  0  0  0  0  0
    6.5375   -6.3417    0.0000 C   0  0  0  0  0  0  0  0  0  0  0  0
    5.8250   -6.7542    0.0000 C   0  0  0  0  0  0  0  0  0  0  0  0
    2.9750   -5.1125    0.0000 C   0  0  0  0  0  0  0  0  0  0  0  0
    5.1125   -6.3500    0.0000 C   0  0  0  0  0  0  0  0  0  0  0  0
    3.7875   -2.3000    0.0000 Cl  0  0  0  0  0  0  0  0  0  0  0  0
    4.4250   -4.0542    0.0000 C   0  0  0  0  0  0  0  0  0  0  0  0
    4.4000   -6.7625    0.0000 C   0  0  0  0  0  0  0  0  0  0  0  0
    5.1000   -5.5167    0.0000 C   0  0  0  0  0  0  0  0  0  0  0  0
    3.6875   -5.5250    0.0000 C   0  0  0  0  0  0  0  0  0  0  0  0
    1.5125   -4.0542    0.0000 C   0  0  0  0  0  0  0  0  0  0  0  0
    4.4000   -5.1125    0.0000 C   0  0  0  0  0  0  0  0  0  0  0  0
    3.6875   -6.3500    0.0000 C   0  0  0  0  0  0  0  0  0  0  0  0
    7.2500   -6.7500    0.0000 C   0  0  0  0  0  0  0  0  0  0  0  0
    5.1292   -3.6375    0.0000 O   0  0  0  0  0  0  0  0  0  0  0  0
    5.8250   -7.5875    0.0000 C   0  0  0  0  0  0  0  0  0  0  0  0
    0.9000   -3.5042    0.0000 C   0  0  0  0  0  0  0  0  0  0  0  0
    0.1125   -3.7625    0.0000 C   0  0  0  0  0  0  0  0  0  0  0  0
    7.2500   -7.5792    0.0000 C   0  0  0  0  0  0  0  0  0  0  0  0
    6.5375   -8.0000    0.0000 C   0  0  0  0  0  0  0  0  0  0  0  0
   -0.5000   -3.2125    0.0000 C   0  0  0  0  0  0  0  0  0  0  0  0
  2  1  1  0
  3  5  2  0
  4  2  2  0
  5  1  1  0
  6 11  1  0
  7  6  1  0
  8  7  2  0
  9  6  2  0
 10  9  1  0
 11 12  1  0
 12 14  1  0
 13  1  1  0
 14 17  2  0
 15  4  1  0
 16  2  1  0
 17 22  1  0
 18 21  2  0
 19 13  1  0
 20  5  1  0
 21 19  1  0
 22 19  2  0
 23 11  2  0
 24 16  1  0
 25 12  2  0
 26 20  1  0
 27 26  1  0
 28 29  2  0
 29 25  1  0
 30 27  1  0
  3  4  1  0
 18 14  1  0
 23 28  1  0
  8 10  1  0
M  CHG  1  10  -1
M  END
>  <From>  (1) 
www.bindingDB.org

>  <BindingDB Reactant_set_id>  (1) 
50005484

>  <Ligand InChI>  (1) 
InChI=1S/C22H22ClN6O/c1-2-3-8-20-24-21(23)19(14-30)29(20)13-15-9-11-16(12-10-15)17-6-4-5-7-18(17)22-25-27-28-26-22/h4-7,9-12,30H,2-3,8,13-14H2,1H3/q-1

>  <Ligand InChI Key>  (1) 
MDMTUGIZSFHDIC-UHFFFAOYSA-N

>  <BindingDB MonomerID>  (1) 
50406795

>  <BindingDB Ligand Name>  (1) 
Cozaar::LOSARTAN POTASSIUM

>  <Target Name>  (1) 
Type-1 angiotensin II receptor B

>  <Target Source Organism According to Curator or DataSource>  (1) 
Rattus

>  <Ki (nM)>  (1) 


>  <IC50 (nM)>  (1) 
 9.8

>  <Kd (nM)>  (1) 


>  <EC50 (nM)>  (1) 


>  <kon (M-1-s-1)>  (1) 


>  <koff (s-1)>  (1) 


>  <pH>  (1) 


>  <Temp C>  (1) 


>  <Curation/DataSource>  (1) 
ChEMBL

>  <Article DOI>  (1) 
10.1016/S0960-894X(96)00250-8

>  <BindingDB Entry DOI>  (1) 
10.7270/Q2SN08XQ

>  <PMID>  (1) 


>  <PubChem AID>  (1) 


>  <Patent Number>  (1) 


>  <Authors>  (1) 
Hirata, T; Nomiyama, J; Sakae, N; Nishimura, K; Yokomoto, M; Inoue, S; Tamura, K; Okuhira, M; Amano, H; Nagao, Y

>  <Institution>  (1) 
TBA

>  <Link to Ligand in BindingDB>  (1) 
http://www.bindingdb.org/bind/chemsearch/marvin/MolStructure.jsp?monomerid=50406795

>  <Link to Ligand-Target Pair in BindingDB>  (1) 
http://www.bindingdb.org/jsp/dbsearch/PrimarySearch_ki.jsp?energyterm=kJ/mole&tag=r21&monomerid=50406795&enzyme=Type-1+angiotensin+II+receptor+B&column=ki&startPg=0&Increment=50&submit=Search

>  <Ligand HET ID in PDB>  (1) 


>  <PDB ID(s) for Ligand-Target Complex>  (1) 


>  <PubChem CID of Ligand>  (1) 
25749227

>  <PubChem SID of Ligand>  (1) 
163355819

>  <ChEBI ID of Ligand>  (1) 


>  <ChEMBL ID of Ligand>  (1) 


>  <DrugBank ID of Ligand>  (1) 


>  <IUPHAR_GRAC ID of Ligand>  (1) 


>  <KEGG ID of Ligand>  (1) 


>  <ZINC ID of Ligand>  (1) 
ZINC13298439

>  <Number of Protein Chains in Target (bigger than 1 implies a multichain complex)>  (1) 
1

>  <BindingDB Target Chain Sequence>  (1) 
MTLNSSTEDGIKRIQDDCPKAGRHNYIFVMIPTLYSIIFVVGIFGNSLVVIVIYFYMKLKTVASVFLLNLALADLCFLLTLPLWAVYTAMEYRWPFGNHLCKIASASVSFNLYASVFLLTCLSIDRYLAIVHPMKSRLRRTMLVAKVTCIIIWLMAGLASLPAVIYRNVYFIENTNITVCAFHYESQNSTLPIGLGLTKNILGFVFPFLIILTSYTLIWKALKKAYKIQKNTPRNDDIFRIIMAIVLFFFFSWVPHQIFTFLDVLIQLGIIRDCEIADIVDTAMPITICIAYFNNCLNPLFYGFLGKKFKKYFLQLLKYIPPTAKSHAGLSTKMSTLSYRPSDNMSSSAKKSASFFEVE

>  <PDB ID(s) of Target Chain>  (1) 


>  <UniProt (SwissProt) Recommended Name of Target Chain>  (1) 
Type-1 angiotensin II receptor B

>  <UniProt (SwissProt) Entry Name of Target Chain>  (1) 
AGTRB_RAT

>  <UniProt (SwissProt) Primary ID of Target Chain>  (1) 
P29089

>  <UniProt (SwissProt) Secondary ID(s) of Target Chain>  (1) 


>  <UniProt (SwissProt) Alternative ID(s) of Target Chain>  (1) 


>  <UniProt (TrEMBL) Submitted Name of Target Chain>  (1) 


>  <UniProt (TrEMBL) Entry Name of Target Chain>  (1) 


>  <UniProt (TrEMBL) Primary ID of Target Chain>  (1) 


>  <UniProt (TrEMBL) Secondary ID(s) of Target Chain>  (1) 


>  <UniProt (TrEMBL) Alternative ID(s) of Target Chain>  (1) 


$$$$
