
     RDKit          2D

 31 34  0  0  0  0  0  0  0  0999 V2000
    8.5281   -2.4678    0.0000 N   0  0  0  0  0  0  0  0  0  0  0  0
    8.1149   -1.2052    0.0000 N   0  0  0  0  0  0  0  0  0  0  0  0
    7.8567   -1.9857    0.0000 C   0  0  0  0  0  0  0  0  0  0  0  0
    9.1996   -1.9799    0.0000 C   0  0  0  0  0  0  0  0  0  0  0  0
    8.9413   -1.1937    0.0000 C   0  0  0  0  0  0  0  0  0  0  0  0
    5.6701   -5.7734    0.0000 C   0  0  0  0  0  0  0  0  0  0  0  0
    6.3932   -6.1981    0.0000 C   0  0  0  0  0  0  0  0  0  0  0  0
    8.5281   -3.2942    0.0000 C   0  0  0  0  0  0  0  0  0  0  0  0
    5.6701   -4.9584    0.0000 O   0  0  0  0  0  0  0  0  0  0  0  0
    7.0991   -5.7734    0.0000 O   0  0  0  0  0  0  0  0  0  0  0  0
    4.9642   -6.1981    0.0000 C   0  0  0  0  0  0  0  0  0  0  0  0
    6.3932   -4.5452    0.0000 C   0  0  0  0  0  0  0  0  0  0  0  0
    7.8222   -3.7074    0.0000 C   0  0  0  0  0  0  0  0  0  0  0  0
    6.3932   -7.0245    0.0000 O   0  0  0  0  0  0  0  0  0  0  0  0
    7.0819   -2.2440    0.0000 C   0  0  0  0  0  0  0  0  0  0  0  0
    7.0991   -4.9584    0.0000 C   0  0  0  0  0  0  0  0  0  0  0  0
    6.3932   -3.7188    0.0000 C   0  0  0  0  0  0  0  0  0  0  0  0
    7.8222   -4.5452    0.0000 C   0  0  0  0  0  0  0  0  0  0  0  0
    7.0991   -3.2942    0.0000 C   0  0  0  0  0  0  0  0  0  0  0  0
    9.9915   -2.1407    0.0000 C   0  0  0  0  0  0  0  0  0  0  0  0
    9.4750   -0.5854    0.0000 C   0  0  0  0  0  0  0  0  0  0  0  0
    4.2411   -5.7734    0.0000 C   0  0  0  0  0  0  0  0  0  0  0  0
    4.9642   -7.0130    0.0000 C   0  0  0  0  0  0  0  0  0  0  0  0
    6.4621   -1.7045    0.0000 C   0  0  0  0  0  0  0  0  0  0  0  0
    5.6701   -1.9627    0.0000 C   0  0  0  0  0  0  0  0  0  0  0  0
   10.5425   -1.5323    0.0000 C   0  0  0  0  0  0  0  0  0  0  0  0
   10.2842   -0.7461    0.0000 C   0  0  0  0  0  0  0  0  0  0  0  0
    5.0503   -1.4176    0.0000 C   0  0  0  0  0  0  0  0  0  0  0  0
    4.2411   -7.4262    0.0000 C   0  0  0  0  0  0  0  0  0  0  0  0
    3.5352   -6.1866    0.0000 C   0  0  0  0  0  0  0  0  0  0  0  0
    3.5352   -7.0130    0.0000 C   0  0  0  0  0  0  0  0  0  0  0  0
  2  3  2  0
  3  1  1  0
  4  1  1  0
  5  4  2  0
  6  9  1  0
  7  6  1  0
  8  1  1  0
  9 12  1  0
 10  7  2  0
 11  6  1  0
 12 17  2  0
 13  8  1  0
 14  7  1  0
 15  3  1  0
 16 18  2  0
 17 19  1  0
 18 13  1  0
 19 13  2  0
 20  4  1  0
 21  5  1  0
 22 11  2  0
 23 11  1  0
 24 15  1  0
 25 24  1  0
 26 20  2  0
 27 26  1  0
 28 25  1  0
 29 23  2  0
 30 22  1  0
 31 29  1  0
  5  2  1  0
 12 16  1  0
 27 21  2  0
 30 31  2  0
M  END
>  <From>  (1) 
www.bindingDB.org

>  <BindingDB Reactant_set_id>  (1) 
50003616

>  <Ligand InChI>  (1) 
InChI=1S/C26H26N2O3/c1-2-3-13-24-27-22-11-7-8-12-23(22)28(24)18-19-14-16-21(17-15-19)31-25(26(29)30)20-9-5-4-6-10-20/h4-12,14-17,25H,2-3,13,18H2,1H3,(H,29,30)

>  <Ligand InChI Key>  (1) 
RVGDQMKIRQYBTA-UHFFFAOYSA-N

>  <BindingDB MonomerID>  (1) 
50284447

>  <BindingDB Ligand Name>  (1) 
CHEMBL15670::[4-(2-Butyl-benzoimidazol-1-ylmethyl)-phenoxy]-phenyl-acetic acid

>  <Target Name>  (1) 
Type-1 angiotensin II receptor

>  <Target Source Organism According to Curator or DataSource>  (1) 
Oryctolagus cuniculus

>  <Ki (nM)>  (1) 


>  <IC50 (nM)>  (1) 
 93

>  <Kd (nM)>  (1) 


>  <EC50 (nM)>  (1) 


>  <kon (M-1-s-1)>  (1) 


>  <koff (s-1)>  (1) 


>  <pH>  (1) 


>  <Temp C>  (1) 


>  <Curation/DataSource>  (1) 
ChEMBL

>  <Article DOI>  (1) 
10.1016/0960-894X(95)00185-V

>  <BindingDB Entry DOI>  (1) 
10.7270/Q2J67GV9

>  <PMID>  (1) 


>  <PubChem AID>  (1) 


>  <Patent Number>  (1) 


>  <Authors>  (1) 
Walsh, TF; Fitch, KJ; Chang, RS; Faust, KA; Chen, TB; Kivlighn, SD; Zingaro, GJ; Lotti, VJ; Siegl, PK; Patchett, AA; Greenlee, WJ

>  <Institution>  (1) 
TBA

>  <Link to Ligand in BindingDB>  (1) 
http://www.bindingdb.org/bind/chemsearch/marvin/MolStructure.jsp?monomerid=50284447

>  <Link to Ligand-Target Pair in BindingDB>  (1) 
http://www.bindingdb.org/jsp/dbsearch/PrimarySearch_ki.jsp?energyterm=kJ/mole&tag=r21&monomerid=50284447&enzyme=Type-1+angiotensin+II+receptor&column=ki&startPg=0&Increment=50&submit=Search

>  <Ligand HET ID in PDB>  (1) 


>  <PDB ID(s) for Ligand-Target Complex>  (1) 


>  <PubChem CID of Ligand>  (1) 
15287882

>  <PubChem SID of Ligand>  (1) 
104126104

>  <ChEBI ID of Ligand>  (1) 


>  <ChEMBL ID of Ligand>  (1) 
CHEMBL15670

>  <DrugBank ID of Ligand>  (1) 


>  <IUPHAR_GRAC ID of Ligand>  (1) 


>  <KEGG ID of Ligand>  (1) 


>  <ZINC ID of Ligand>  (1) 
ZINC11687552

>  <Number of Protein Chains in Target (bigger than 1 implies a multichain complex)>  (1) 
1

>  <BindingDB Target Chain Sequence>  (1) 
MMLNSSTEDGIKRIQDDCPKAGRHNYIFVMIPTLYSIIFVVGIFGNSLAVIVIYFYMKLKTVASVFLLNLALADLCFLLTLPLWAVYTAMEYRWPFGNYLCKIASASVSFNLYASVFLLTCLSIDRYLAIVHPMKSRLRRTMLVAKVTCIIIWLLAGLASLPAIIHRNVFFIENTNITVCAFHYESQNSTLPIGLGLTKNILGFLFPFLIILTSYTLIWKALKKAYEIQKNKPRNDDIFKIIMAIVLFFFFSWVPHQIFTFLDVLIQLGVIHDCRIADIVDTAMPITICIAYFNNCLNPLFYGFLGKKFKKYFLQLLKYIPPKAKSHSNLSTKMSTLSYRPSDNVSSSSKKPVPCFEVE

>  <PDB ID(s) of Target Chain>  (1) 
6DO1,6OS0,6OS1,6OS2

>  <UniProt (SwissProt) Recommended Name of Target Chain>  (1) 
Type-1 angiotensin II receptor

>  <UniProt (SwissProt) Entry Name of Target Chain>  (1) 
AGTR1_RABIT

>  <UniProt (SwissProt) Primary ID of Target Chain>  (1) 
P34976

>  <UniProt (SwissProt) Secondary ID(s) of Target Chain>  (1) 


>  <UniProt (SwissProt) Alternative ID(s) of Target Chain>  (1) 


>  <UniProt (TrEMBL) Submitted Name of Target Chain>  (1) 


>  <UniProt (TrEMBL) Entry Name of Target Chain>  (1) 


>  <UniProt (TrEMBL) Primary ID of Target Chain>  (1) 


>  <UniProt (TrEMBL) Secondary ID(s) of Target Chain>  (1) 


>  <UniProt (TrEMBL) Alternative ID(s) of Target Chain>  (1) 


$$$$
