
     RDKit          2D

 44 49  0  0  0  0  0  0  0  0999 V2000
    6.9973   -8.7567    0.0000 N   0  0  0  0  0  0  0  0  0  0  0  0
    7.6564   -9.2495    0.0000 C   0  0  0  0  0  0  0  0  0  0  0  0
    7.3985  -10.0403    0.0000 C   0  0  0  0  0  0  0  0  0  0  0  0
    6.3268   -9.2495    0.0000 N   0  0  0  0  0  0  0  0  0  0  0  0
    6.5732  -10.0403    0.0000 C   0  0  0  0  0  0  0  0  0  0  0  0
   11.2954   -9.1865    0.0000 C   0  0  0  0  0  0  0  0  0  0  0  0
   10.8885   -7.9142    0.0000 N   0  0  0  0  0  0  0  0  0  0  0  0
    7.1922   -7.9658    0.0000 C   0  0  0  0  0  0  0  0  0  0  0  0
   10.6306   -8.7051    0.0000 N   0  0  0  0  0  0  0  0  0  0  0  0
   11.7138   -7.9257    0.0000 N   0  0  0  0  0  0  0  0  0  0  0  0
   11.9659   -8.7051    0.0000 N   0  0  0  0  0  0  0  0  0  0  0  0
    8.4472   -8.9974    0.0000 C   0  0  0  0  0  0  0  0  0  0  0  0
   11.5762   -9.9773    0.0000 C   0  0  0  0  0  0  0  0  0  0  0  0
    6.6076   -7.3985    0.0000 C   0  0  0  0  0  0  0  0  0  0  0  0
   11.1808  -10.6936    0.0000 C   0  0  0  0  0  0  0  0  0  0  0  0
    7.8913  -10.6994    0.0000 C   0  0  0  0  0  0  0  0  0  0  0  0
   10.3556  -10.6994    0.0000 C   0  0  0  0  0  0  0  0  0  0  0  0
    9.2381   -9.3928    0.0000 O   0  0  0  0  0  0  0  0  0  0  0  0
    5.8110   -7.6334    0.0000 C   0  0  0  0  0  0  0  0  0  0  0  0
    9.9429  -11.4043    0.0000 C   0  0  0  0  0  0  0  0  0  0  0  0
    9.9372   -9.9887    0.0000 C   0  0  0  0  0  0  0  0  0  0  0  0
    8.7051  -10.6994    0.0000 C   0  0  0  0  0  0  0  0  0  0  0  0
    8.6191   -8.1893    0.0000 O   0  0  0  0  0  0  0  0  0  0  0  0
    9.1177   -9.9945    0.0000 C   0  0  0  0  0  0  0  0  0  0  0  0
    9.1177  -11.4157    0.0000 C   0  0  0  0  0  0  0  0  0  0  0  0
    6.0919  -10.6994    0.0000 C   0  0  0  0  0  0  0  0  0  0  0  0
    7.9830   -7.7365    0.0000 C   0  0  0  0  0  0  0  0  0  0  0  0
   12.4014   -9.9716    0.0000 C   0  0  0  0  0  0  0  0  0  0  0  0
    6.7967   -6.6019    0.0000 C   0  0  0  0  0  0  0  0  0  0  0  0
   11.5934  -11.4043    0.0000 C   0  0  0  0  0  0  0  0  0  0  0  0
    5.2151   -7.0546    0.0000 C   0  0  0  0  0  0  0  0  0  0  0  0
    5.6219   -8.4300    0.0000 C   0  0  0  0  0  0  0  0  0  0  0  0
    9.4100   -7.9658    0.0000 C   0  0  0  0  0  0  0  0  0  0  0  0
    5.2666  -10.6994    0.0000 C   0  0  0  0  0  0  0  0  0  0  0  0
    4.8482  -11.4043    0.0000 C   0  0  0  0  0  0  0  0  0  0  0  0
    8.1836   -6.9457    0.0000 C   0  0  0  0  0  0  0  0  0  0  0  0
   12.8255  -10.6822    0.0000 C   0  0  0  0  0  0  0  0  0  0  0  0
    7.5876   -6.3669    0.0000 C   0  0  0  0  0  0  0  0  0  0  0  0
   12.4186  -11.4043    0.0000 C   0  0  0  0  0  0  0  0  0  0  0  0
    9.6335   -7.1692    0.0000 C   0  0  0  0  0  0  0  0  0  0  0  0
    4.0230  -11.3985    0.0000 C   0  0  0  0  0  0  0  0  0  0  0  0
    4.8310   -8.6649    0.0000 C   0  0  0  0  0  0  0  0  0  0  0  0
    4.4242   -7.2895    0.0000 C   0  0  0  0  0  0  0  0  0  0  0  0
    4.2293   -8.0862    0.0000 C   0  0  0  0  0  0  0  0  0  0  0  0
  2  1  1  0
  3  2  2  0
  4  1  1  0
  5  4  2  0
  6 13  1  0
  7  9  1  0
  8  1  1  0
  9  6  1  0
 10 11  1  0
 11  6  2  0
 12  2  1  0
 13 15  1  0
 14  8  1  0
 15 17  1  0
 16  3  1  0
 17 20  2  0
 18 12  2  0
 19 14  1  0
 20 25  1  0
 21 24  2  0
 22 16  1  0
 23 12  1  0
 24 22  1  0
 25 22  2  0
 26  5  1  0
 27  8  2  0
 28 13  2  0
 29 14  2  0
 30 15  2  0
 31 19  2  0
 32 19  1  0
 33 23  1  0
 34 26  1  0
 35 34  1  0
 36 27  1  0
 37 39  2  0
 38 36  2  0
 39 30  1  0
 40 33  1  0
 41 35  1  0
 42 32  2  0
 43 31  1  0
 44 42  1  0
  5  3  1  0
 38 29  1  0
 43 44  2  0
 21 17  1  0
 28 37  1  0
 10  7  2  0
M  END
>  <From>  (1) 
www.bindingDB.org

>  <BindingDB Reactant_set_id>  (1) 
50061770

>  <Ligand InChI>  (1) 
InChI=1S/C36H34N6O2/c1-3-5-18-32-31(24-25-20-22-27(23-21-25)28-15-9-10-17-30(28)35-37-40-41-38-35)34(36(43)44-4-2)42(39-32)33-19-12-11-16-29(33)26-13-7-6-8-14-26/h6-17,19-23H,3-5,18,24H2,1-2H3,(H,37,38,40,41)

>  <Ligand InChI Key>  (1) 
OZFBONPAGZIQDC-UHFFFAOYSA-N

>  <BindingDB MonomerID>  (1) 
50042562

>  <BindingDB Ligand Name>  (1) 
2-Biphenyl-2-yl-5-butyl-4-[2'-(1H-tetrazol-5-yl)-biphenyl-4-ylmethyl]-2H-pyrazole-3-carboxylic acid ethyl ester::CHEMBL406791::i2-Biphenyl-2-yl-5-butyl-4-[2'-(1H-tetrazol-5-yl)-biphenyl-4-ylmethyl]-2H-pyrazole-3-carboxylic acid ethyl ester

>  <Target Name>  (1) 
Type-1 angiotensin II receptor

>  <Target Source Organism According to Curator or DataSource>  (1) 
Oryctolagus cuniculus

>  <Ki (nM)>  (1) 


>  <IC50 (nM)>  (1) 
 23

>  <Kd (nM)>  (1) 


>  <EC50 (nM)>  (1) 


>  <kon (M-1-s-1)>  (1) 


>  <koff (s-1)>  (1) 


>  <pH>  (1) 


>  <Temp C>  (1) 


>  <Curation/DataSource>  (1) 
ChEMBL

>  <Article DOI>  (1) 
10.1021/jm00075a014

>  <BindingDB Entry DOI>  (1) 
10.7270/Q25Q4V5H

>  <PMID>  (1) 
8246227

>  <PubChem AID>  (1) 


>  <Patent Number>  (1) 


>  <Authors>  (1) 
Ashton, WT; Hutchins, SM; Greenlee, WJ; Doss, GA; Chang, RS; Lotti, VJ; Faust, KA; Chen, TB; Zingaro, GJ; Kivlighn, SD

>  <Institution>  (1) 
Merck Research Laboratories

>  <Link to Ligand in BindingDB>  (1) 
http://www.bindingdb.org/bind/chemsearch/marvin/MolStructure.jsp?monomerid=50042562

>  <Link to Ligand-Target Pair in BindingDB>  (1) 
http://www.bindingdb.org/jsp/dbsearch/PrimarySearch_ki.jsp?energyterm=kJ/mole&tag=r21&monomerid=50042562&enzyme=Type-1+angiotensin+II+receptor&column=ki&startPg=0&Increment=50&submit=Search

>  <Ligand HET ID in PDB>  (1) 


>  <PDB ID(s) for Ligand-Target Complex>  (1) 


>  <PubChem CID of Ligand>  (1) 
14971685

>  <PubChem SID of Ligand>  (1) 
103974158

>  <ChEBI ID of Ligand>  (1) 


>  <ChEMBL ID of Ligand>  (1) 
CHEMBL406791

>  <DrugBank ID of Ligand>  (1) 


>  <IUPHAR_GRAC ID of Ligand>  (1) 


>  <KEGG ID of Ligand>  (1) 


>  <ZINC ID of Ligand>  (1) 
ZINC26658119

>  <Number of Protein Chains in Target (bigger than 1 implies a multichain complex)>  (1) 
1

>  <BindingDB Target Chain Sequence>  (1) 
MMLNSSTEDGIKRIQDDCPKAGRHNYIFVMIPTLYSIIFVVGIFGNSLAVIVIYFYMKLKTVASVFLLNLALADLCFLLTLPLWAVYTAMEYRWPFGNYLCKIASASVSFNLYASVFLLTCLSIDRYLAIVHPMKSRLRRTMLVAKVTCIIIWLLAGLASLPAIIHRNVFFIENTNITVCAFHYESQNSTLPIGLGLTKNILGFLFPFLIILTSYTLIWKALKKAYEIQKNKPRNDDIFKIIMAIVLFFFFSWVPHQIFTFLDVLIQLGVIHDCRIADIVDTAMPITICIAYFNNCLNPLFYGFLGKKFKKYFLQLLKYIPPKAKSHSNLSTKMSTLSYRPSDNVSSSSKKPVPCFEVE

>  <PDB ID(s) of Target Chain>  (1) 
6DO1,6OS0,6OS1,6OS2

>  <UniProt (SwissProt) Recommended Name of Target Chain>  (1) 
Type-1 angiotensin II receptor

>  <UniProt (SwissProt) Entry Name of Target Chain>  (1) 
AGTR1_RABIT

>  <UniProt (SwissProt) Primary ID of Target Chain>  (1) 
P34976

>  <UniProt (SwissProt) Secondary ID(s) of Target Chain>  (1) 


>  <UniProt (SwissProt) Alternative ID(s) of Target Chain>  (1) 


>  <UniProt (TrEMBL) Submitted Name of Target Chain>  (1) 


>  <UniProt (TrEMBL) Entry Name of Target Chain>  (1) 


>  <UniProt (TrEMBL) Primary ID of Target Chain>  (1) 


>  <UniProt (TrEMBL) Secondary ID(s) of Target Chain>  (1) 


>  <UniProt (TrEMBL) Alternative ID(s) of Target Chain>  (1) 


$$$$
