
     RDKit          2D

 36 40  0  0  0  0  0  0  0  0999 V2000
   -0.8422    2.6984    0.0000 C   0  0  0  0  0  0  0  0  0  0  0  0
   -1.6328    2.4406    0.0000 N   0  0  0  0  0  0  0  0  0  0  0  0
   -0.8422    3.5234    0.0000 C   0  0  0  0  0  0  0  0  0  0  0  0
   -0.1375    2.2859    0.0000 C   0  0  0  0  0  0  0  0  0  0  0  0
   -1.6328    3.7813    0.0000 N   0  0  0  0  0  0  0  0  0  0  0  0
   -2.1255    3.1223    0.0000 C   0  0  0  0  0  0  0  0  0  0  0  0
    0.5730    2.6984    0.0000 N   0  0  0  0  0  0  0  0  0  0  0  0
   -4.2797   -1.2089    0.0000 C   0  0  0  0  0  0  0  0  0  0  0  0
   -5.3052   -0.3323    0.0000 N   0  0  0  0  0  0  0  0  0  0  0  0
   -4.4802   -0.4011    0.0000 N   0  0  0  0  0  0  0  0  0  0  0  0
   -5.6145   -1.1000    0.0000 N   0  0  0  0  0  0  0  0  0  0  0  0
   -0.1375    3.9359    0.0000 C   0  0  0  0  0  0  0  0  0  0  0  0
   -4.9958   -1.6386    0.0000 N   0  0  0  0  0  0  0  0  0  0  0  0
    0.5730    3.5234    0.0000 C   0  0  0  0  0  0  0  0  0  0  0  0
   -3.5177   -1.5297    0.0000 C   0  0  0  0  0  0  0  0  0  0  0  0
   -2.7500   -1.2261    0.0000 C   0  0  0  0  0  0  0  0  0  0  0  0
   -2.3547    2.0395    0.0000 C   0  0  0  0  0  0  0  0  0  0  0  0
    1.2948    2.2802    0.0000 C   0  0  0  0  0  0  0  0  0  0  0  0
    2.0109    2.6927    0.0000 C   0  0  0  0  0  0  0  0  0  0  0  0
   -0.1375    1.4609    0.0000 O   0  0  0  0  0  0  0  0  0  0  0  0
   -2.6239   -0.4125    0.0000 C   0  0  0  0  0  0  0  0  0  0  0  0
    2.0109    3.5177    0.0000 O   0  0  0  0  0  0  0  0  0  0  0  0
   -1.8505   -0.1089    0.0000 C   0  0  0  0  0  0  0  0  0  0  0  0
   -3.2599    0.1145    0.0000 C   0  0  0  0  0  0  0  0  0  0  0  0
   -2.3547    1.2145    0.0000 C   0  0  0  0  0  0  0  0  0  0  0  0
    2.7214    2.2802    0.0000 N   0  0  0  0  0  0  0  0  0  0  0  0
   -2.9505    3.1223    0.0000 C   0  0  0  0  0  0  0  0  0  0  0  0
   -1.7188    0.6989    0.0000 C   0  0  0  0  0  0  0  0  0  0  0  0
   -3.1281    0.9223    0.0000 C   0  0  0  0  0  0  0  0  0  0  0  0
   -3.6552   -2.3375    0.0000 C   0  0  0  0  0  0  0  0  0  0  0  0
   -2.1083   -1.7417    0.0000 C   0  0  0  0  0  0  0  0  0  0  0  0
   -3.3630    3.8270    0.0000 C   0  0  0  0  0  0  0  0  0  0  0  0
   -4.1880    3.8270    0.0000 C   0  0  0  0  0  0  0  0  0  0  0  0
   -2.2344   -2.5609    0.0000 C   0  0  0  0  0  0  0  0  0  0  0  0
   -3.0078   -2.8589    0.0000 C   0  0  0  0  0  0  0  0  0  0  0  0
   -4.6005    4.5375    0.0000 C   0  0  0  0  0  0  0  0  0  0  0  0
  2  1  1  0
  3  1  2  0
  4  1  1  0
  5  3  1  0
  6  2  1  0
  7  4  1  0
  8 15  1  0
  9 10  1  0
 10  8  1  0
 11 13  1  0
 12  3  1  0
 13  8  2  0
 14  7  1  0
 15 16  1  0
 16 21  1  0
 17  2  1  0
 18  7  1  0
 19 18  1  0
 20  4  2  0
 21 24  2  0
 22 19  2  0
 23 28  2  0
 24 29  1  0
 25 17  1  0
 26 19  1  0
 27  6  1  0
 28 25  1  0
 29 25  2  0
 30 15  2  0
 31 16  2  0
 32 27  1  0
 33 32  1  0
 34 31  1  0
 35 34  2  0
 36 33  1  0
  6  5  2  0
 14 12  2  0
 23 21  1  0
 35 30  1  0
 11  9  2  0
M  END
>  <From>  (1) 
www.bindingDB.org

>  <BindingDB Reactant_set_id>  (1) 
50066292

>  <Ligand InChI>  (1) 
InChI=1S/C26H26N8O2/c1-2-3-8-23-28-21-13-14-33(16-22(27)35)26(36)24(21)34(23)15-17-9-11-18(12-10-17)19-6-4-5-7-20(19)25-29-31-32-30-25/h4-7,9-14H,2-3,8,15-16H2,1H3,(H2,27,35)(H,29,30,31,32)

>  <Ligand InChI Key>  (1) 
XMZLTEXZGOCLFC-UHFFFAOYSA-N

>  <BindingDB MonomerID>  (1) 
50041701

>  <BindingDB Ligand Name>  (1) 
2-{2-Butyl-4-oxo-3-[2'-(1H-tetrazol-5-yl)-biphenyl-4-ylmethyl]-3,4-dihydro-imidazo[4,5-c]pyridin-5-yl}-acetamide::CHEMBL297358

>  <Target Name>  (1) 
Type-1 angiotensin II receptor B

>  <Target Source Organism According to Curator or DataSource>  (1) 
Rattus

>  <Ki (nM)>  (1) 


>  <IC50 (nM)>  (1) 
 1.1

>  <Kd (nM)>  (1) 


>  <EC50 (nM)>  (1) 


>  <kon (M-1-s-1)>  (1) 


>  <koff (s-1)>  (1) 


>  <pH>  (1) 


>  <Temp C>  (1) 


>  <Curation/DataSource>  (1) 
ChEMBL

>  <Article DOI>  (1) 
10.1021/jm00037a014

>  <BindingDB Entry DOI>  (1) 
10.7270/Q2RR1X9M

>  <PMID>  (1) 
8201597

>  <PubChem AID>  (1) 


>  <Patent Number>  (1) 


>  <Authors>  (1) 
Mederski, WW; Dorsch, D; Bokel, HH; Beier, N; Lues, I; Schelling, P

>  <Institution>  (1) 
E. Merck

>  <Link to Ligand in BindingDB>  (1) 
http://www.bindingdb.org/bind/chemsearch/marvin/MolStructure.jsp?monomerid=50041701

>  <Link to Ligand-Target Pair in BindingDB>  (1) 
http://www.bindingdb.org/jsp/dbsearch/PrimarySearch_ki.jsp?energyterm=kJ/mole&tag=r21&monomerid=50041701&enzyme=Type-1+angiotensin+II+receptor+B&column=ki&startPg=0&Increment=50&submit=Search

>  <Ligand HET ID in PDB>  (1) 


>  <PDB ID(s) for Ligand-Target Complex>  (1) 


>  <PubChem CID of Ligand>  (1) 
10028209

>  <PubChem SID of Ligand>  (1) 
103973391

>  <ChEBI ID of Ligand>  (1) 


>  <ChEMBL ID of Ligand>  (1) 
CHEMBL297358

>  <DrugBank ID of Ligand>  (1) 


>  <IUPHAR_GRAC ID of Ligand>  (1) 


>  <KEGG ID of Ligand>  (1) 


>  <ZINC ID of Ligand>  (1) 
ZINC13736760

>  <Number of Protein Chains in Target (bigger than 1 implies a multichain complex)>  (1) 
1

>  <BindingDB Target Chain Sequence>  (1) 
MTLNSSTEDGIKRIQDDCPKAGRHNYIFVMIPTLYSIIFVVGIFGNSLVVIVIYFYMKLKTVASVFLLNLALADLCFLLTLPLWAVYTAMEYRWPFGNHLCKIASASVSFNLYASVFLLTCLSIDRYLAIVHPMKSRLRRTMLVAKVTCIIIWLMAGLASLPAVIYRNVYFIENTNITVCAFHYESQNSTLPIGLGLTKNILGFVFPFLIILTSYTLIWKALKKAYKIQKNTPRNDDIFRIIMAIVLFFFFSWVPHQIFTFLDVLIQLGIIRDCEIADIVDTAMPITICIAYFNNCLNPLFYGFLGKKFKKYFLQLLKYIPPTAKSHAGLSTKMSTLSYRPSDNMSSSAKKSASFFEVE

>  <PDB ID(s) of Target Chain>  (1) 


>  <UniProt (SwissProt) Recommended Name of Target Chain>  (1) 
Type-1 angiotensin II receptor B

>  <UniProt (SwissProt) Entry Name of Target Chain>  (1) 
AGTRB_RAT

>  <UniProt (SwissProt) Primary ID of Target Chain>  (1) 
P29089

>  <UniProt (SwissProt) Secondary ID(s) of Target Chain>  (1) 


>  <UniProt (SwissProt) Alternative ID(s) of Target Chain>  (1) 


>  <UniProt (TrEMBL) Submitted Name of Target Chain>  (1) 


>  <UniProt (TrEMBL) Entry Name of Target Chain>  (1) 


>  <UniProt (TrEMBL) Primary ID of Target Chain>  (1) 


>  <UniProt (TrEMBL) Secondary ID(s) of Target Chain>  (1) 


>  <UniProt (TrEMBL) Alternative ID(s) of Target Chain>  (1) 


$$$$
