
     RDKit          2D

 46 51  0  0  0  0  0  0  0  0999 V2000
    3.6837   -4.7701    0.0000 N   0  0  0  0  0  0  0  0  0  0  0  0
    4.3247   -4.2498    0.0000 C   0  0  0  0  0  0  0  0  0  0  0  0
    4.0333   -3.4839    0.0000 C   0  0  0  0  0  0  0  0  0  0  0  0
    3.2092   -3.5256    0.0000 N   0  0  0  0  0  0  0  0  0  0  0  0
    2.9886   -4.3122    0.0000 C   0  0  0  0  0  0  0  0  0  0  0  0
    7.2925   -5.8232    0.0000 C   0  0  0  0  0  0  0  0  0  0  0  0
    6.8097   -4.5828    0.0000 N   0  0  0  0  0  0  0  0  0  0  0  0
    6.5974   -5.3737    0.0000 N   0  0  0  0  0  0  0  0  0  0  0  0
    7.6338   -4.5370    0.0000 N   0  0  0  0  0  0  0  0  0  0  0  0
    7.9293   -5.3070    0.0000 N   0  0  0  0  0  0  0  0  0  0  0  0
    5.1197   -4.4704    0.0000 C   0  0  0  0  0  0  0  0  0  0  0  0
    7.3341   -6.6473    0.0000 C   0  0  0  0  0  0  0  0  0  0  0  0
    4.5620   -1.3653    0.0000 C   0  0  0  0  0  0  0  0  0  0  0  0
    6.6473   -7.0969    0.0000 C   0  0  0  0  0  0  0  0  0  0  0  0
    3.7212   -5.5942    0.0000 C   0  0  0  0  0  0  0  0  0  0  0  0
    4.1125   -2.0604    0.0000 N   0  0  0  0  0  0  0  0  0  0  0  0
    4.4829   -2.7888    0.0000 C   0  0  0  0  0  0  0  0  0  0  0  0
    4.1957   -0.6286    0.0000 C   0  0  0  0  0  0  0  0  0  0  0  0
    5.9189   -6.7223    0.0000 C   0  0  0  0  0  0  0  0  0  0  0  0
    5.1114   -5.0198    0.0000 O   0  0  0  0  0  0  0  0  0  0  0  0
    5.3861   -1.4152    0.0000 O   0  0  0  0  0  0  0  0  0  0  0  0
    4.6452    0.0582    0.0000 C   0  0  0  0  0  0  0  0  0  0  0  0
    3.3715   -0.5869    0.0000 C   0  0  0  0  0  0  0  0  0  0  0  0
    5.2238   -7.1676    0.0000 C   0  0  0  0  0  0  0  0  0  0  0  0
    5.8731   -5.8939    0.0000 C   0  0  0  0  0  0  0  0  0  0  0  0
    4.4496   -5.9688    0.0000 C   0  0  0  0  0  0  0  0  0  0  0  0
    5.7066   -3.8877    0.0000 O   0  0  0  0  0  0  0  0  0  0  0  0
    2.2227   -4.6119    0.0000 C   0  0  0  0  0  0  0  0  0  0  0  0
    4.4871   -6.7930    0.0000 C   0  0  0  0  0  0  0  0  0  0  0  0
    5.1447   -5.5235    0.0000 C   0  0  0  0  0  0  0  0  0  0  0  0
    8.0709   -7.0219    0.0000 C   0  0  0  0  0  0  0  0  0  0  0  0
    6.6848   -7.9210    0.0000 C   0  0  0  0  0  0  0  0  0  0  0  0
    5.4694    0.0083    0.0000 C   0  0  0  0  0  0  0  0  0  0  0  0
    4.2748    0.7825    0.0000 C   0  0  0  0  0  0  0  0  0  0  0  0
    3.0011    0.1498    0.0000 C   0  0  0  0  0  0  0  0  0  0  0  0
    2.9262   -1.2737    0.0000 C   0  0  0  0  0  0  0  0  0  0  0  0
    1.5859   -4.0875    0.0000 C   0  0  0  0  0  0  0  0  0  0  0  0
    7.4215   -8.2956    0.0000 C   0  0  0  0  0  0  0  0  0  0  0  0
    8.1083   -7.8461    0.0000 C   0  0  0  0  0  0  0  0  0  0  0  0
    0.8159   -4.3747    0.0000 C   0  0  0  0  0  0  0  0  0  0  0  0
    4.7201    1.4735    0.0000 C   0  0  0  0  0  0  0  0  0  0  0  0
    2.1770    0.1956    0.0000 C   0  0  0  0  0  0  0  0  0  0  0  0
    2.1020   -1.2279    0.0000 C   0  0  0  0  0  0  0  0  0  0  0  0
    5.9189    0.6951    0.0000 C   0  0  0  0  0  0  0  0  0  0  0  0
    5.5485    1.4318    0.0000 C   0  0  0  0  0  0  0  0  0  0  0  0
    1.7274   -0.4912    0.0000 C   0  0  0  0  0  0  0  0  0  0  0  0
  2  1  1  0
  3  2  2  0
  4  5  2  0
  5  1  1  0
  6 12  1  0
  7  8  1  0
  8  6  1  0
  9 10  1  0
 10  6  2  0
 11  2  1  0
 12 14  1  0
 13 16  1  0
 14 19  1  0
 15  1  1  0
 16 17  1  0
 17  3  1  0
 18 13  1  0
 19 25  2  0
 20 11  2  0
 21 13  2  0
 22 18  1  0
 23 18  1  0
 24 29  2  0
 25 30  1  0
 26 15  1  0
 27 11  1  0
 28  5  1  0
 29 26  1  0
 30 26  2  0
 31 12  2  0
 32 14  2  0
 33 22  2  0
 34 22  1  0
 35 23  2  0
 36 23  1  0
 37 28  1  0
 38 32  1  0
 39 38  2  0
 40 37  1  0
 41 34  2  0
 42 35  1  0
 43 36  2  0
 44 33  1  0
 45 41  1  0
 46 43  1  0
  4  3  1  0
 19 24  1  0
 31 39  1  0
  7  9  2  0
 46 42  2  0
 45 44  2  0
M  END
>  <From>  (1) 
www.bindingDB.org

>  <BindingDB Reactant_set_id>  (1) 
50469043

>  <Ligand InChI>  (1) 
InChI=1S/C36H33N7O3/c1-2-11-31-38-30(22-37-35(44)32(26-12-5-3-6-13-26)27-14-7-4-8-15-27)33(36(45)46)43(31)23-24-18-20-25(21-19-24)28-16-9-10-17-29(28)34-39-41-42-40-34/h3-10,12-21,32H,2,11,22-23H2,1H3,(H,37,44)(H,45,46)(H,39,40,41,42)

>  <Ligand InChI Key>  (1) 
ISSSWRVOTBACDP-UHFFFAOYSA-N

>  <BindingDB MonomerID>  (1) 
50283180

>  <BindingDB Ligand Name>  (1) 
5-(Diphenylacetylamino-methyl)-2-propyl-3-[2'-(1H-tetrazol-5-yl)-biphenyl-4-ylmethyl]-3H-imidazole-4-carboxylic acid::CHEMBL302760

>  <Target Name>  (1) 
Type-1 angiotensin II receptor

>  <Target Source Organism According to Curator or DataSource>  (1) 
Homo sapiens

>  <Ki (nM)>  (1) 


>  <IC50 (nM)>  (1) 
 10

>  <Kd (nM)>  (1) 


>  <EC50 (nM)>  (1) 


>  <kon (M-1-s-1)>  (1) 


>  <koff (s-1)>  (1) 


>  <pH>  (1) 


>  <Temp C>  (1) 


>  <Curation/DataSource>  (1) 
ChEMBL

>  <Article DOI>  (1) 
10.1016/S0960-894X(00)80076-1

>  <BindingDB Entry DOI>  (1) 
10.7270/Q2JQ110M

>  <PMID>  (1) 


>  <PubChem AID>  (1) 


>  <Patent Number>  (1) 


>  <Authors>  (1) 
Olson, RE; Liu, J; Lalka, GK; VanAtten, MK; Wexler, RR; Chiu, AT; Nguyen, TT; McCall, DE; Wong, PC; Timmermans, PB

>  <Institution>  (1) 
TBA

>  <Link to Ligand in BindingDB>  (1) 
http://www.bindingdb.org/bind/chemsearch/marvin/MolStructure.jsp?monomerid=50283180

>  <Link to Ligand-Target Pair in BindingDB>  (1) 
http://www.bindingdb.org/jsp/dbsearch/PrimarySearch_ki.jsp?energyterm=kJ/mole&tag=r21&monomerid=50283180&enzyme=Type-1+angiotensin+II+receptor&column=ki&startPg=0&Increment=50&submit=Search

>  <Ligand HET ID in PDB>  (1) 


>  <PDB ID(s) for Ligand-Target Complex>  (1) 


>  <PubChem CID of Ligand>  (1) 
44311342

>  <PubChem SID of Ligand>  (1) 
104124854

>  <ChEBI ID of Ligand>  (1) 


>  <ChEMBL ID of Ligand>  (1) 
CHEMBL302760

>  <DrugBank ID of Ligand>  (1) 


>  <IUPHAR_GRAC ID of Ligand>  (1) 


>  <KEGG ID of Ligand>  (1) 


>  <ZINC ID of Ligand>  (1) 
ZINC26285496

>  <Number of Protein Chains in Target (bigger than 1 implies a multichain complex)>  (1) 
1

>  <BindingDB Target Chain Sequence>  (1) 
MILNSSTEDGIKRIQDDCPKAGRHNYIFVMIPTLYSIIFVVGIFGNSLVVIVIYFYMKLKTVASVFLLNLALADLCFLLTLPLWAVYTAMEYRWPFGNYLCKIASASVSFNLYASVFLLTCLSIDRYLAIVHPMKSRLRRTMLVAKVTCIIIWLLAGLASLPAIIHRNVFFIENTNITVCAFHYESQNSTLPIGLGLTKNILGFLFPFLIILTSYTLIWKALKKAYEIQKNKPRNDDIFKIIMAIVLFFFFSWIPHQIFTFLDVLIQLGIIRDCRIADIVDTAMPITICIAYFNNCLNPLFYGFLGKKFKRYFLQLLKYIPPKAKSHSNLSTKMSTLSYRPSDNVSSSTKKPAPCFEVE

>  <PDB ID(s) of Target Chain>  (1) 
6DO1,6OS0,6OS1,6OS2

>  <UniProt (SwissProt) Recommended Name of Target Chain>  (1) 
Type-1 angiotensin II receptor

>  <UniProt (SwissProt) Entry Name of Target Chain>  (1) 
AGTR1_HUMAN

>  <UniProt (SwissProt) Primary ID of Target Chain>  (1) 
P30556

>  <UniProt (SwissProt) Secondary ID(s) of Target Chain>  (1) 
Q13725 Q8TBK4

>  <UniProt (SwissProt) Alternative ID(s) of Target Chain>  (1) 


>  <UniProt (TrEMBL) Submitted Name of Target Chain>  (1) 


>  <UniProt (TrEMBL) Entry Name of Target Chain>  (1) 


>  <UniProt (TrEMBL) Primary ID of Target Chain>  (1) 


>  <UniProt (TrEMBL) Secondary ID(s) of Target Chain>  (1) 


>  <UniProt (TrEMBL) Alternative ID(s) of Target Chain>  (1) 


$$$$
