
     RDKit          2D

 49 56  0  0  1  0  0  0  0  0999 V2000
    6.3592    0.7339    0.0000 N   0  0  0  0  0  0  0  0  0  0  0  0
    5.6419    0.3211    0.0000 C   0  0  0  0  0  0  0  0  0  0  0  0
    4.9289    0.7464    0.0000 C   0  0  0  0  0  0  0  0  0  0  0  0
    2.7021   -0.5046    0.0000 N   0  0  0  0  0  0  0  0  0  0  0  0
    6.3592    1.5720    0.0000 C   0  0  0  0  0  0  0  0  0  0  0  0
    5.6419    1.9849    0.0000 N   0  0  0  0  0  0  0  0  0  0  0  0
    2.0308    0.6588    0.0000 C   0  0  0  0  0  0  0  0  0  0  0  0
    1.4804    0.0458    0.0000 C   0  0  0  0  0  0  0  0  0  0  0  0
    1.8890   -0.6672    0.0000 O   0  0  0  0  0  0  0  0  0  0  0  0
    8.4942   -2.9690    0.0000 C   0  0  0  0  0  0  0  0  0  0  0  0
    2.7897    0.3211    0.0000 C   0  0  0  0  0  0  0  0  0  0  0  0
    9.3866   -1.9683    0.0000 N   0  0  0  0  0  0  0  0  0  0  0  0
    8.5818   -2.1434    0.0000 N   0  0  0  0  0  0  0  0  0  0  0  0
    9.7994   -2.6813    0.0000 N   0  0  0  0  0  0  0  0  0  0  0  0
    4.9289    1.5720    0.0000 C   0  0  0  0  0  0  0  0  0  0  0  0
    3.5028    0.7339    0.0000 C   0  0  0  0  0  0  0  0  0  0  0  0
    1.6138    1.3719    0.0000 C   0  0  0  0  0  0  0  0  0  0  0  0
    4.2158    0.3211    0.0000 C   0  0  0  0  0  0  0  0  0  0  0  0
    9.2490   -3.2943    0.0000 N   0  0  0  0  0  0  0  0  0  0  0  0
    7.7811   -3.3819    0.0000 C   0  0  0  0  0  0  0  0  0  0  0  0
    0.8048    1.2093    0.0000 O   0  0  0  0  0  0  0  0  0  0  0  0
    7.0681   -2.9690    0.0000 C   0  0  0  0  0  0  0  0  0  0  0  0
    7.0723    0.3211    0.0000 C   0  0  0  0  0  0  0  0  0  0  0  0
    3.3151   -1.0550    0.0000 C   0  0  0  0  0  0  0  0  0  0  0  0
    0.7256    0.3836    0.0000 C   0  0  0  0  0  0  0  0  0  0  0  0
    5.6419   -0.5046    0.0000 O   0  0  0  0  0  0  0  0  0  0  0  0
    7.0681   -2.1434    0.0000 C   0  0  0  0  0  0  0  0  0  0  0  0
    3.5028    1.5595    0.0000 C   0  0  0  0  0  0  0  0  0  0  0  0
    4.2158    1.9849    0.0000 C   0  0  0  0  0  0  0  0  0  0  0  0
    1.9515    2.1350    0.0000 O   0  0  0  0  0  0  0  0  0  0  0  0
    6.3550   -1.7306    0.0000 C   0  0  0  0  0  0  0  0  0  0  0  0
    7.7853   -1.7306    0.0000 C   0  0  0  0  0  0  0  0  0  0  0  0
    7.0723   -0.5046    0.0000 C   0  0  0  0  0  0  0  0  0  0  0  0
    7.0806    1.9724    0.0000 C   0  0  0  0  0  0  0  0  0  0  0  0
    3.1400   -1.8557    0.0000 C   0  0  0  0  0  0  0  0  0  0  0  0
    6.3550   -0.9049    0.0000 C   0  0  0  0  0  0  0  0  0  0  0  0
    7.7853   -0.9049    0.0000 C   0  0  0  0  0  0  0  0  0  0  0  0
    7.7811   -4.2075    0.0000 C   0  0  0  0  0  0  0  0  0  0  0  0
    6.3550   -3.3819    0.0000 C   0  0  0  0  0  0  0  0  0  0  0  0
    2.3519   -2.1059    0.0000 C   0  0  0  0  0  0  0  0  0  0  0  0
    3.7530   -2.4061    0.0000 C   0  0  0  0  0  0  0  0  0  0  0  0
    7.7936    1.5595    0.0000 C   0  0  0  0  0  0  0  0  0  0  0  0
    8.5067    1.9724    0.0000 C   0  0  0  0  0  0  0  0  0  0  0  0
    6.3550   -4.2075    0.0000 C   0  0  0  0  0  0  0  0  0  0  0  0
    7.0681   -4.6203    0.0000 C   0  0  0  0  0  0  0  0  0  0  0  0
    9.2198    1.5595    0.0000 C   0  0  0  0  0  0  0  0  0  0  0  0
    3.5820   -3.2067    0.0000 C   0  0  0  0  0  0  0  0  0  0  0  0
    2.1809   -2.9190    0.0000 C   0  0  0  0  0  0  0  0  0  0  0  0
    2.7939   -3.4694    0.0000 C   0  0  0  0  0  0  0  0  0  0  0  0
  2  1  1  0
  3  2  1  0
 11  4  1  0
  5  1  1  0
  6  5  2  0
  7 11  1  0
  7  8  1  0
  9  4  1  0
 10 20  1  0
 11 16  1  6
 12 13  1  0
 13 10  1  0
 14 19  1  0
 15  6  1  0
 16 18  1  0
  7 17  1  1
 18  3  2  0
 19 10  2  0
 20 22  1  0
 21 17  1  0
 22 27  1  0
 23  1  1  0
 24  4  1  0
  8 25  1  1
 26  2  2  0
 27 32  2  0
 28 29  1  0
 29 15  2  0
 30 17  2  0
 31 36  2  0
 32 37  1  0
 33 23  1  0
 34  5  1  0
 35 24  1  0
 36 33  1  0
 37 33  2  0
 38 20  2  0
 39 22  2  0
 40 35  2  0
 41 35  1  0
 42 34  1  0
 43 42  1  0
 44 39  1  0
 45 44  2  0
 46 43  1  0
 47 41  2  0
 48 40  1  0
 49 47  1  0
 15  3  1  0
 31 27  1  0
 28 16  2  0
  8  9  1  0
 21 25  1  0
 38 45  1  0
 14 12  2  0
 48 49  2  0
M  END
>  <From>  (1) 
www.bindingDB.org

>  <BindingDB Reactant_set_id>  (1) 
50468479

>  <Ligand InChI>  (1) 
InChI=1S/C38H35N7O4/c1-2-3-13-33-39-31-19-18-27(35-34-32(23-48-38(34)47)49-45(35)22-24-9-5-4-6-10-24)20-30(31)37(46)44(33)21-25-14-16-26(17-15-25)28-11-7-8-12-29(28)36-40-42-43-41-36/h4-12,14-20,32,34-35H,2-3,13,21-23H2,1H3,(H,40,41,42,43)/t32-,34+,35-/m0/s1

>  <Ligand InChI Key>  (1) 
QAJPSJBFQOHNJI-MKTDKWDHSA-N

>  <BindingDB MonomerID>  (1) 
50282880

>  <BindingDB Ligand Name>  (1) 
6-((3R,3aS,6aR)-2-Benzyl-4-oxo-hexahydro-furo[3,4-d]isoxazol-3-yl)-2-butyl-3-[2'-(1H-tetrazol-5-yl)-biphenyl-4-ylmethyl]-3H-quinazolin-4-one::CHEMBL53226

>  <Target Name>  (1) 
Type-1 angiotensin II receptor

>  <Target Source Organism According to Curator or DataSource>  (1) 
Bos taurus

>  <Ki (nM)>  (1) 


>  <IC50 (nM)>  (1) 
 177

>  <Kd (nM)>  (1) 


>  <EC50 (nM)>  (1) 


>  <kon (M-1-s-1)>  (1) 


>  <koff (s-1)>  (1) 


>  <pH>  (1) 


>  <Temp C>  (1) 


>  <Curation/DataSource>  (1) 
ChEMBL

>  <Article DOI>  (1) 
10.1016/S0960-894X(01)80377-2

>  <BindingDB Entry DOI>  (1) 
10.7270/Q21V5DXH

>  <PMID>  (1) 


>  <PubChem AID>  (1) 


>  <Patent Number>  (1) 


>  <Authors>  (1) 
Levin, JI; Venkatesan, AM; Chan, PS; Bailey, TK; Vice, G; Coupet, J

>  <Institution>  (1) 
TBA

>  <Link to Ligand in BindingDB>  (1) 
http://www.bindingdb.org/bind/chemsearch/marvin/MolStructure.jsp?monomerid=50282880

>  <Link to Ligand-Target Pair in BindingDB>  (1) 
http://www.bindingdb.org/jsp/dbsearch/PrimarySearch_ki.jsp?energyterm=kJ/mole&tag=r21&monomerid=50282880&enzyme=Type-1+angiotensin+II+receptor&column=ki&startPg=0&Increment=50&submit=Search

>  <Ligand HET ID in PDB>  (1) 


>  <PDB ID(s) for Ligand-Target Complex>  (1) 


>  <PubChem CID of Ligand>  (1) 
44296955

>  <PubChem SID of Ligand>  (1) 
104124554

>  <ChEBI ID of Ligand>  (1) 


>  <ChEMBL ID of Ligand>  (1) 
CHEMBL53226

>  <DrugBank ID of Ligand>  (1) 


>  <IUPHAR_GRAC ID of Ligand>  (1) 


>  <KEGG ID of Ligand>  (1) 


>  <ZINC ID of Ligand>  (1) 
ZINC29485326

>  <Number of Protein Chains in Target (bigger than 1 implies a multichain complex)>  (1) 
1

>  <BindingDB Target Chain Sequence>  (1) 
MILNSSTEDGIKRIQDDCPKAGRHNYIFIMIPTLYSIIFVVGIFGNSLVVIVIYFYMKLKTVASVFLLNLALADLCFLLTLPLWAVYTAMEYRWPFGNYLCKIASASVSFNLYASVFLLTCLSIDRYLAIVHPMKSRLRRTMLVAKVTCIIIWLLAGLASLPTIIHRNVFFIENTNITVCAFHYESQNSTLPVGLGLTKNILGFLFPFLIILTSYTLIWKTLKKAYEIQKNKPRKDDIFKIILAIVLFFFFSWVPHQIFTFMDVLIQLGLIRDCKIEDIVDTAMPITICLAYFNNCLNPLFYGFLGKKFKKYFLQLLKYIPPKAKSHSNLSTKMSTLSYRPSENGNSSTKKPAPCIEVE

>  <PDB ID(s) of Target Chain>  (1) 


>  <UniProt (SwissProt) Recommended Name of Target Chain>  (1) 
Type-1 angiotensin II receptor

>  <UniProt (SwissProt) Entry Name of Target Chain>  (1) 
AGTR1_BOVIN

>  <UniProt (SwissProt) Primary ID of Target Chain>  (1) 
P25104

>  <UniProt (SwissProt) Secondary ID(s) of Target Chain>  (1) 


>  <UniProt (SwissProt) Alternative ID(s) of Target Chain>  (1) 


>  <UniProt (TrEMBL) Submitted Name of Target Chain>  (1) 


>  <UniProt (TrEMBL) Entry Name of Target Chain>  (1) 


>  <UniProt (TrEMBL) Primary ID of Target Chain>  (1) 


>  <UniProt (TrEMBL) Secondary ID(s) of Target Chain>  (1) 


>  <UniProt (TrEMBL) Alternative ID(s) of Target Chain>  (1) 


$$$$
