
     RDKit          2D

 41 45  0  0  0  0  0  0  0  0999 V2000
   11.0861    1.7584    0.0000 C   0  0  0  0  0  0  0  0  0  0  0  0
   11.0849    0.9310    0.0000 C   0  0  0  0  0  0  0  0  0  0  0  0
   11.7997    0.5181    0.0000 C   0  0  0  0  0  0  0  0  0  0  0  0
   11.7979    2.1711    0.0000 C   0  0  0  0  0  0  0  0  0  0  0  0
   12.5133    1.7620    0.0000 C   0  0  0  0  0  0  0  0  0  0  0  0
   12.5181    0.9356    0.0000 C   0  0  0  0  0  0  0  0  0  0  0  0
   13.3056    0.6847    0.0000 N   0  0  0  0  0  0  0  0  0  0  0  0
   13.7876    1.3562    0.0000 C   0  0  0  0  0  0  0  0  0  0  0  0
   13.2978    2.0219    0.0000 N   0  0  0  0  0  0  0  0  0  0  0  0
   14.6125    1.3611    0.0000 C   0  0  0  0  0  0  0  0  0  0  0  0
   15.0208    2.0780    0.0000 C   0  0  0  0  0  0  0  0  0  0  0  0
   15.8458    2.0828    0.0000 C   0  0  0  0  0  0  0  0  0  0  0  0
   13.5651   -0.0984    0.0000 C   0  0  0  0  0  0  0  0  0  0  0  0
   14.3875   -0.0958    0.0000 C   0  0  0  0  0  0  0  0  0  0  0  0
   14.7990   -0.8091    0.0000 C   0  0  0  0  0  0  0  0  0  0  0  0
   15.6206   -0.8069    0.0000 C   0  0  0  0  0  0  0  0  0  0  0  0
   16.0304   -0.0929    0.0000 C   0  0  0  0  0  0  0  0  0  0  0  0
   15.6126    0.6204    0.0000 C   0  0  0  0  0  0  0  0  0  0  0  0
   14.7924    0.6147    0.0000 C   0  0  0  0  0  0  0  0  0  0  0  0
   16.8522   -0.0891    0.0000 C   0  0  0  0  0  0  0  0  0  0  0  0
   17.2673   -0.8033    0.0000 C   0  0  0  0  0  0  0  0  0  0  0  0
   18.0915   -0.8000    0.0000 C   0  0  0  0  0  0  0  0  0  0  0  0
   18.5017   -0.0832    0.0000 C   0  0  0  0  0  0  0  0  0  0  0  0
   18.0816    0.6318    0.0000 C   0  0  0  0  0  0  0  0  0  0  0  0
   17.2587    0.6250    0.0000 C   0  0  0  0  0  0  0  0  0  0  0  0
   16.8390    1.3373    0.0000 C   0  0  0  0  0  0  0  0  0  0  0  0
   17.2463    2.0547    0.0000 O   0  0  0  0  0  0  0  0  0  0  0  0
   16.0140    1.3313    0.0000 O   0  0  0  0  0  0  0  0  0  0  0  0
   11.7955    2.9961    0.0000 C   0  0  0  0  0  0  0  0  0  0  0  0
   10.3701    0.5191    0.0000 C   0  0  0  0  0  0  0  0  0  0  0  0
    9.6560    0.9321    0.0000 N   0  0  0  0  0  0  0  0  0  0  0  0
   10.3695   -0.3059    0.0000 O   0  0  0  0  0  0  0  0  0  0  0  0
    8.9412    0.5202    0.0000 C   0  0  0  0  0  0  0  0  0  0  0  0
    8.2270    0.9333    0.0000 C   0  0  0  0  0  0  0  0  0  0  0  0
    6.7986    1.7625    0.0000 C   0  0  0  0  0  0  0  0  0  0  0  0
    6.7974    0.9352    0.0000 C   0  0  0  0  0  0  0  0  0  0  0  0
    7.5122    0.5223    0.0000 C   0  0  0  0  0  0  0  0  0  0  0  0
    8.2258    1.7662    0.0000 C   0  0  0  0  0  0  0  0  0  0  0  0
    7.5104    2.1753    0.0000 C   0  0  0  0  0  0  0  0  0  0  0  0
    8.9391    2.1807    0.0000 O   0  0  0  0  0  0  0  0  0  0  0  0
    8.9368    3.0057    0.0000 C   0  0  0  0  0  0  0  0  0  0  0  0
  9  5  1  0
  4  1  2  0
 20 21  2  0
  8 10  1  0
 21 22  1  0
  5  6  2  0
 22 23  2  0
 10 11  1  0
 23 24  1  0
 24 25  2  0
 25 20  1  0
 17 20  1  0
 11 12  1  0
  2  3  2  0
  7 13  1  0
 26 27  1  0
 26 28  2  0
 25 26  1  0
  3  6  1  0
  4 29  1  0
 13 14  1  0
  2 30  1  0
  1  2  1  0
 30 31  1  0
 14 15  2  0
 30 32  2  0
  5  4  1  0
 31 33  1  0
 15 16  1  0
 33 34  1  0
  6  7  1  0
 16 17  2  0
 35 36  2  0
  7  8  1  0
 36 37  1  0
 37 34  2  0
 17 18  1  0
 34 38  1  0
  8  9  2  0
 38 39  2  0
 39 35  1  0
 18 19  2  0
 38 40  1  0
 19 14  1  0
 40 41  1  0
M  END
>  <From>  (1) 
www.bindingDB.org

>  <BindingDB Reactant_set_id>  (1) 
50716812

>  <Ligand InChI>  (1) 
InChI=1S/C34H33N3O4/c1-4-9-31-36-32-22(2)18-26(33(38)35-20-25-10-5-8-13-30(25)41-3)19-29(32)37(31)21-23-14-16-24(17-15-23)27-11-6-7-12-28(27)34(39)40/h5-8,10-19H,4,9,20-21H2,1-3H3,(H,35,38)(H,39,40)

>  <Ligand InChI Key>  (1) 
NKVLENIRXUJTOR-UHFFFAOYSA-N

>  <BindingDB MonomerID>  (1) 
50363826

>  <BindingDB Ligand Name>  (1) 
CHEMBL1947129

>  <Target Name>  (1) 
Type-1 angiotensin II receptor

>  <Target Source Organism According to Curator or DataSource>  (1) 
Homo sapiens

>  <Ki (nM)>  (1) 


>  <IC50 (nM)>  (1) 
 2.4

>  <Kd (nM)>  (1) 


>  <EC50 (nM)>  (1) 


>  <kon (M-1-s-1)>  (1) 


>  <koff (s-1)>  (1) 


>  <pH>  (1) 


>  <Temp C>  (1) 


>  <Curation/DataSource>  (1) 
ChEMBL

>  <Article DOI>  (1) 
10.1016/j.ejmech.2012.01.009

>  <BindingDB Entry DOI>  (1) 
10.7270/Q29K4BPW

>  <PMID>  (1) 
22309912

>  <PubChem AID>  (1) 


>  <Patent Number>  (1) 


>  <Authors>  (1) 
Wang, JL; Zhang, J; Zhou, ZM; Li, ZH; Xue, WZ; Xu, D; Hao, LP; Han, XF; Fei, F; Liu, T; Liang, AH

>  <Institution>  (1) 
Beijing Institute of Technology

>  <Link to Ligand in BindingDB>  (1) 
http://www.bindingdb.org/bind/chemsearch/marvin/MolStructure.jsp?monomerid=50363826

>  <Link to Ligand-Target Pair in BindingDB>  (1) 
http://www.bindingdb.org/jsp/dbsearch/PrimarySearch_ki.jsp?energyterm=kJ/mole&tag=r21&monomerid=50363826&enzyme=Type-1+angiotensin+II+receptor&column=ki&startPg=0&Increment=50&submit=Search

>  <Ligand HET ID in PDB>  (1) 


>  <PDB ID(s) for Ligand-Target Complex>  (1) 


>  <PubChem CID of Ligand>  (1) 
57380412

>  <PubChem SID of Ligand>  (1) 
136967888

>  <ChEBI ID of Ligand>  (1) 


>  <ChEMBL ID of Ligand>  (1) 
CHEMBL1947129

>  <DrugBank ID of Ligand>  (1) 


>  <IUPHAR_GRAC ID of Ligand>  (1) 


>  <KEGG ID of Ligand>  (1) 


>  <ZINC ID of Ligand>  (1) 
ZINC72316987

>  <Number of Protein Chains in Target (bigger than 1 implies a multichain complex)>  (1) 
1

>  <BindingDB Target Chain Sequence>  (1) 
MILNSSTEDGIKRIQDDCPKAGRHNYIFVMIPTLYSIIFVVGIFGNSLVVIVIYFYMKLKTVASVFLLNLALADLCFLLTLPLWAVYTAMEYRWPFGNYLCKIASASVSFNLYASVFLLTCLSIDRYLAIVHPMKSRLRRTMLVAKVTCIIIWLLAGLASLPAIIHRNVFFIENTNITVCAFHYESQNSTLPIGLGLTKNILGFLFPFLIILTSYTLIWKALKKAYEIQKNKPRNDDIFKIIMAIVLFFFFSWIPHQIFTFLDVLIQLGIIRDCRIADIVDTAMPITICIAYFNNCLNPLFYGFLGKKFKRYFLQLLKYIPPKAKSHSNLSTKMSTLSYRPSDNVSSSTKKPAPCFEVE

>  <PDB ID(s) of Target Chain>  (1) 
6DO1,6OS0,6OS1,6OS2

>  <UniProt (SwissProt) Recommended Name of Target Chain>  (1) 
Type-1 angiotensin II receptor

>  <UniProt (SwissProt) Entry Name of Target Chain>  (1) 
AGTR1_HUMAN

>  <UniProt (SwissProt) Primary ID of Target Chain>  (1) 
P30556

>  <UniProt (SwissProt) Secondary ID(s) of Target Chain>  (1) 
Q13725 Q8TBK4

>  <UniProt (SwissProt) Alternative ID(s) of Target Chain>  (1) 


>  <UniProt (TrEMBL) Submitted Name of Target Chain>  (1) 


>  <UniProt (TrEMBL) Entry Name of Target Chain>  (1) 


>  <UniProt (TrEMBL) Primary ID of Target Chain>  (1) 


>  <UniProt (TrEMBL) Secondary ID(s) of Target Chain>  (1) 


>  <UniProt (TrEMBL) Alternative ID(s) of Target Chain>  (1) 


$$$$
