
     RDKit          2D

 31 35  0  0  0  0  0  0  0  0999 V2000
    4.3977  -21.2394    0.0000 C   0  0  0  0  0  0  0  0  0  0  0  0
    3.6811  -21.6499    0.0000 C   0  0  0  0  0  0  0  0  0  0  0  0
    3.6783  -22.4763    0.0000 C   0  0  0  0  0  0  0  0  0  0  0  0
    4.3945  -22.8906    0.0000 C   0  0  0  0  0  0  0  0  0  0  0  0
    5.1150  -22.4769    0.0000 C   0  0  0  0  0  0  0  0  0  0  0  0
    5.1143  -21.6519    0.0000 C   0  0  0  0  0  0  0  0  0  0  0  0
    4.3934  -23.7133    0.0000 C   0  0  0  0  0  0  0  0  0  0  0  0
    3.6743  -24.1271    0.0000 C   0  0  0  0  0  0  0  0  0  0  0  0
    3.6726  -24.9535    0.0000 C   0  0  0  0  0  0  0  0  0  0  0  0
    4.3893  -25.3670    0.0000 C   0  0  0  0  0  0  0  0  0  0  0  0
    5.1093  -24.9522    0.0000 C   0  0  0  0  0  0  0  0  0  0  0  0
    5.1074  -24.1272    0.0000 C   0  0  0  0  0  0  0  0  0  0  0  0
    5.8239  -23.7108    0.0000 C   0  0  0  0  0  0  0  0  0  0  0  0
    6.5778  -24.0469    0.0000 N   0  0  0  0  0  0  0  0  0  0  0  0
    7.1320  -23.4305    0.0000 N   0  0  0  0  0  0  0  0  0  0  0  0
    5.9066  -22.8862    0.0000 N   0  0  0  0  0  0  0  0  0  0  0  0
    6.6372  -22.7046    0.0000 N   0  0  0  0  0  0  0  0  0  0  0  0
    4.3986  -20.4164    0.0000 C   0  0  0  0  0  0  0  0  0  0  0  0
    5.1118  -20.0056    0.0000 O   0  0  0  0  0  0  0  0  0  0  0  0
    5.1127  -19.1826    0.0000 C   0  0  0  0  0  0  0  0  0  0  0  0
    4.6996  -17.9120    0.0000 N   0  0  0  0  0  0  0  0  0  0  0  0
    4.4446  -18.6945    0.0000 N   0  0  0  0  0  0  0  0  0  0  0  0
    5.5227  -17.9129    0.0000 C   0  0  0  0  0  0  0  0  0  0  0  0
    5.7747  -18.6949    0.0000 C   0  0  0  0  0  0  0  0  0  0  0  0
    6.5762  -18.8663    0.0000 C   0  0  0  0  0  0  0  0  0  0  0  0
    7.1266  -18.2567    0.0000 C   0  0  0  0  0  0  0  0  0  0  0  0
    6.8698  -17.4730    0.0000 C   0  0  0  0  0  0  0  0  0  0  0  0
    6.0689  -17.3053    0.0000 N   0  0  0  0  0  0  0  0  0  0  0  0
    4.2166  -17.2457    0.0000 C   0  0  0  0  0  0  0  0  0  0  0  0
    4.5521  -16.4943    0.0000 C   0  0  0  0  0  0  0  0  0  0  0  0
    4.0689  -15.8280    0.0000 C   0  0  0  0  0  0  0  0  0  0  0  0
  7  8  2  0
 14 15  1  0
 15 17  2  0
 17 16  1  0
 16 13  1  0
  8  9  1  0
  1 18  1  0
  4  5  2  0
 18 19  1  0
  9 10  2  0
 19 20  1  0
 20 24  1  0
  2  3  2  0
 10 11  1  0
 23 21  1  0
 21 22  1  0
 22 20  2  0
  5  6  1  0
 11 12  2  0
 23 24  2  0
 12  7  1  0
 24 25  1  0
  4  7  1  0
 25 26  2  0
  6  1  2  0
 26 27  1  0
 12 13  1  0
 27 28  2  0
 28 23  1  0
 13 14  2  0
 21 29  1  0
  1  2  1  0
 29 30  1  0
  3  4  1  0
 30 31  1  0
M  END
>  <From>  (1) 
www.bindingDB.org

>  <BindingDB Reactant_set_id>  (1) 
50867915

>  <Ligand InChI>  (1) 
InChI=1S/C23H21N7O/c1-2-14-30-22-20(8-5-13-24-22)23(27-30)31-15-16-9-11-17(12-10-16)18-6-3-4-7-19(18)21-25-28-29-26-21/h3-13H,2,14-15H2,1H3,(H,25,26,28,29)

>  <Ligand InChI Key>  (1) 
SXLBZZWNBKTXEL-UHFFFAOYSA-N

>  <BindingDB MonomerID>  (1) 
50376905

>  <BindingDB Ligand Name>  (1) 
CHEMBL258891

>  <Target Name>  (1) 
Type-1 angiotensin II receptor A

>  <Target Source Organism According to Curator or DataSource>  (1) 
Rattus

>  <Ki (nM)>  (1) 


>  <IC50 (nM)>  (1) 
 146

>  <Kd (nM)>  (1) 


>  <EC50 (nM)>  (1) 


>  <kon (M-1-s-1)>  (1) 


>  <koff (s-1)>  (1) 


>  <pH>  (1) 


>  <Temp C>  (1) 


>  <Curation/DataSource>  (1) 
ChEMBL

>  <Article DOI>  (1) 
10.1021/jm7011563

>  <BindingDB Entry DOI>  (1) 
10.7270/Q20P10X0

>  <PMID>  (1) 
18318468

>  <PubChem AID>  (1) 


>  <Patent Number>  (1) 


>  <Authors>  (1) 
Cappelli, A; Nannicini, C; Gallelli, A; Giuliani, G; Valenti, S; Mohr, Gl; Anzini, M; Mennuni, L; Ferrari, F; Caselli, G; Giordani, A; Peris, W; Makovec, F; Giorgi, G; Vomero, S

>  <Institution>  (1) 
Universit&#163; di Siena

>  <Link to Ligand in BindingDB>  (1) 
http://www.bindingdb.org/bind/chemsearch/marvin/MolStructure.jsp?monomerid=50376905

>  <Link to Ligand-Target Pair in BindingDB>  (1) 
http://www.bindingdb.org/jsp/dbsearch/PrimarySearch_ki.jsp?energyterm=kJ/mole&tag=r21&monomerid=50376905&enzyme=Type-1+angiotensin+II+receptor+A&column=ki&startPg=0&Increment=50&submit=Search

>  <Ligand HET ID in PDB>  (1) 


>  <PDB ID(s) for Ligand-Target Complex>  (1) 


>  <PubChem CID of Ligand>  (1) 
24828294

>  <PubChem SID of Ligand>  (1) 
160855988

>  <ChEBI ID of Ligand>  (1) 


>  <ChEMBL ID of Ligand>  (1) 
CHEMBL258891

>  <DrugBank ID of Ligand>  (1) 


>  <IUPHAR_GRAC ID of Ligand>  (1) 


>  <KEGG ID of Ligand>  (1) 


>  <ZINC ID of Ligand>  (1) 
ZINC29052399

>  <Number of Protein Chains in Target (bigger than 1 implies a multichain complex)>  (1) 
1

>  <BindingDB Target Chain Sequence>  (1) 
MALNSSAEDGIKRIQDDCPKAGRHSYIFVMIPTLYSIIFVVGIFGNSLVVIVIYFYMKLKTVASVFLLNLALADLCFLLTLPLWAVYTAMEYRWPFGNHLCKIASASVSFNLYASVFLLTCLSIDRYLAIVHPMKSRLRRTMLVAKVTCIIIWLMAGLASLPAVIHRNVYFIENTNITVCAFHYESRNSTLPIGLGLTKNILGFLFPFLIILTSYTLIWKALKKAYEIQKNKPRNDDIFRIIMAIVLFFFFSWVPHQIFTFLDVLIQLGVIHDCKISDIVDTAMPITICIAYFNNCLNPLFYGFLGKKFKKYFLQLLKYIPPKAKSHSSLSTKMSTLSYRPSDNMSSSAKKPASCFEVE

>  <PDB ID(s) of Target Chain>  (1) 


>  <UniProt (SwissProt) Recommended Name of Target Chain>  (1) 
Type-1 angiotensin II receptor A

>  <UniProt (SwissProt) Entry Name of Target Chain>  (1) 
AGTRA_RAT

>  <UniProt (SwissProt) Primary ID of Target Chain>  (1) 
P25095

>  <UniProt (SwissProt) Secondary ID(s) of Target Chain>  (1) 
Q9QVS5

>  <UniProt (SwissProt) Alternative ID(s) of Target Chain>  (1) 


>  <UniProt (TrEMBL) Submitted Name of Target Chain>  (1) 


>  <UniProt (TrEMBL) Entry Name of Target Chain>  (1) 


>  <UniProt (TrEMBL) Primary ID of Target Chain>  (1) 


>  <UniProt (TrEMBL) Secondary ID(s) of Target Chain>  (1) 


>  <UniProt (TrEMBL) Alternative ID(s) of Target Chain>  (1) 


$$$$
