
     RDKit          2D

 30 33  0  0  0  0  0  0  0  0999 V2000
   18.6814    1.0941    0.0000 N   0  0  0  0  0  0  0  0  0  0  0  0
   18.4318    1.8852    0.0000 C   0  0  0  0  0  0  0  0  0  0  0  0
   17.6025    1.8912    0.0000 C   0  0  0  0  0  0  0  0  0  0  0  0
   17.3404    1.1047    0.0000 N   0  0  0  0  0  0  0  0  0  0  0  0
   18.0074    0.6125    0.0000 C   0  0  0  0  0  0  0  0  0  0  0  0
   18.0012   -0.2125    0.0000 C   0  0  0  0  0  0  0  0  0  0  0  0
   17.2836   -0.6196    0.0000 O   0  0  0  0  0  0  0  0  0  0  0  0
   19.3937    0.6778    0.0000 C   0  0  0  0  0  0  0  0  0  0  0  0
   19.3893   -0.1472    0.0000 C   0  0  0  0  0  0  0  0  0  0  0  0
   18.6732   -0.5516    0.0000 C   0  0  0  0  0  0  0  0  0  0  0  0
   18.6684   -1.3758    0.0000 C   0  0  0  0  0  0  0  0  0  0  0  0
   19.3812   -1.7930    0.0000 C   0  0  0  0  0  0  0  0  0  0  0  0
   20.1003   -1.3799    0.0000 C   0  0  0  0  0  0  0  0  0  0  0  0
   20.1015   -0.5570    0.0000 C   0  0  0  0  0  0  0  0  0  0  0  0
   19.3789   -2.6135    0.0000 C   0  0  0  0  0  0  0  0  0  0  0  0
   18.6612   -3.0225    0.0000 C   0  0  0  0  0  0  0  0  0  0  0  0
   18.6575   -3.8467    0.0000 C   0  0  0  0  0  0  0  0  0  0  0  0
   19.3708   -4.2629    0.0000 C   0  0  0  0  0  0  0  0  0  0  0  0
   20.0893   -3.8489    0.0000 C   0  0  0  0  0  0  0  0  0  0  0  0
   20.0895   -3.0260    0.0000 C   0  0  0  0  0  0  0  0  0  0  0  0
   20.8042   -2.6114    0.0000 C   0  0  0  0  0  0  0  0  0  0  0  0
   21.5895   -2.8639    0.0000 N   0  0  0  0  0  0  0  0  0  0  0  0
   22.0725   -2.1950    0.0000 N   0  0  0  0  0  0  0  0  0  0  0  0
   21.5855   -1.5290    0.0000 N   0  0  0  0  0  0  0  0  0  0  0  0
   20.8017   -1.7864    0.0000 N   0  0  0  0  0  0  0  0  0  0  0  0
   18.8475    2.5978    0.0000 C   0  0  0  0  0  0  0  0  0  0  0  0
   19.6725    2.5940    0.0000 C   0  0  0  0  0  0  0  0  0  0  0  0
   20.0883    3.3066    0.0000 C   0  0  0  0  0  0  0  0  0  0  0  0
   20.9133    3.3028    0.0000 C   0  0  0  0  0  0  0  0  0  0  0  0
   17.1226    2.5622    0.0000 Br  0  0  0  0  0  0  0  0  0  0  0  0
  6  7  1  0
  2  3  2  0
 15 16  2  0
  1  8  1  0
 16 17  1  0
  3  4  1  0
 17 18  2  0
  8  9  1  0
 18 19  1  0
  4  5  2  0
 19 20  2  0
 20 15  1  0
 12 15  1  0
 21 22  1  0
  9 10  2  0
  5  1  1  0
 10 11  1  0
  1  2  1  0
 11 12  2  0
 22 23  1  0
 23 24  2  0
 24 25  1  0
 25 21  2  0
 20 21  1  0
  5  6  1  0
  2 26  1  0
 12 13  1  0
 26 27  1  0
 27 28  1  0
 13 14  2  0
 28 29  1  0
 14  9  1  0
  3 30  1  0
M  END
>  <From>  (1) 
www.bindingDB.org

>  <BindingDB Reactant_set_id>  (1) 
50949592

>  <Ligand InChI>  (1) 
InChI=1S/C22H23BrN6O/c1-2-3-8-19-21(23)24-20(14-30)29(19)13-15-9-11-16(12-10-15)17-6-4-5-7-18(17)22-25-27-28-26-22/h4-7,9-12,30H,2-3,8,13-14H2,1H3,(H,25,26,27,28)

>  <Ligand InChI Key>  (1) 
XFQKDKGUUTTZOI-UHFFFAOYSA-N

>  <BindingDB MonomerID>  (1) 
50389542

>  <BindingDB Ligand Name>  (1) 
CHEMBL2063981

>  <Target Name>  (1) 
Type-1 angiotensin II receptor

>  <Target Source Organism According to Curator or DataSource>  (1) 
Homo sapiens

>  <Ki (nM)>  (1) 


>  <IC50 (nM)>  (1) 
 117

>  <Kd (nM)>  (1) 


>  <EC50 (nM)>  (1) 


>  <kon (M-1-s-1)>  (1) 


>  <koff (s-1)>  (1) 


>  <pH>  (1) 


>  <Temp C>  (1) 


>  <Curation/DataSource>  (1) 
ChEMBL

>  <Article DOI>  (1) 
10.1016/j.ejmech.2012.07.040

>  <BindingDB Entry DOI>  (1) 
10.7270/Q23B617T

>  <PMID>  (1) 
22889560

>  <PubChem AID>  (1) 


>  <Patent Number>  (1) 


>  <Authors>  (1) 
Agelis, G; Resvani, A; Durdagi, S; Spyridaki, K; Tumova, T; Slaninova, J; Giannopoulos, P; Vlahakos, D; Liapakis, G; Mavromoustakos, T; Matsoukas, J

>  <Institution>  (1) 
University of Patras

>  <Link to Ligand in BindingDB>  (1) 
http://www.bindingdb.org/bind/chemsearch/marvin/MolStructure.jsp?monomerid=50389542

>  <Link to Ligand-Target Pair in BindingDB>  (1) 
http://www.bindingdb.org/jsp/dbsearch/PrimarySearch_ki.jsp?energyterm=kJ/mole&tag=r21&monomerid=50389542&enzyme=Type-1+angiotensin+II+receptor&column=ki&startPg=0&Increment=50&submit=Search

>  <Ligand HET ID in PDB>  (1) 


>  <PDB ID(s) for Ligand-Target Complex>  (1) 


>  <PubChem CID of Ligand>  (1) 
70690743

>  <PubChem SID of Ligand>  (1) 
160868625

>  <ChEBI ID of Ligand>  (1) 


>  <ChEMBL ID of Ligand>  (1) 
CHEMBL2063981

>  <DrugBank ID of Ligand>  (1) 


>  <IUPHAR_GRAC ID of Ligand>  (1) 


>  <KEGG ID of Ligand>  (1) 


>  <ZINC ID of Ligand>  (1) 
ZINC84668460

>  <Number of Protein Chains in Target (bigger than 1 implies a multichain complex)>  (1) 
1

>  <BindingDB Target Chain Sequence>  (1) 
MILNSSTEDGIKRIQDDCPKAGRHNYIFVMIPTLYSIIFVVGIFGNSLVVIVIYFYMKLKTVASVFLLNLALADLCFLLTLPLWAVYTAMEYRWPFGNYLCKIASASVSFNLYASVFLLTCLSIDRYLAIVHPMKSRLRRTMLVAKVTCIIIWLLAGLASLPAIIHRNVFFIENTNITVCAFHYESQNSTLPIGLGLTKNILGFLFPFLIILTSYTLIWKALKKAYEIQKNKPRNDDIFKIIMAIVLFFFFSWIPHQIFTFLDVLIQLGIIRDCRIADIVDTAMPITICIAYFNNCLNPLFYGFLGKKFKRYFLQLLKYIPPKAKSHSNLSTKMSTLSYRPSDNVSSSTKKPAPCFEVE

>  <PDB ID(s) of Target Chain>  (1) 
6DO1,6OS0,6OS1,6OS2

>  <UniProt (SwissProt) Recommended Name of Target Chain>  (1) 
Type-1 angiotensin II receptor

>  <UniProt (SwissProt) Entry Name of Target Chain>  (1) 
AGTR1_HUMAN

>  <UniProt (SwissProt) Primary ID of Target Chain>  (1) 
P30556

>  <UniProt (SwissProt) Secondary ID(s) of Target Chain>  (1) 
Q13725 Q8TBK4

>  <UniProt (SwissProt) Alternative ID(s) of Target Chain>  (1) 


>  <UniProt (TrEMBL) Submitted Name of Target Chain>  (1) 


>  <UniProt (TrEMBL) Entry Name of Target Chain>  (1) 


>  <UniProt (TrEMBL) Primary ID of Target Chain>  (1) 


>  <UniProt (TrEMBL) Secondary ID(s) of Target Chain>  (1) 


>  <UniProt (TrEMBL) Alternative ID(s) of Target Chain>  (1) 


$$$$
