
     RDKit          2D

 45 50  0  0  0  0  0  0  0  0999 V2000
    7.4292  -12.9042    0.0000 N   0  0  0  0  0  0  0  0  0  0  0  0
    6.6417  -12.6417    0.0000 C   0  0  0  0  0  0  0  0  0  0  0  0
    7.4250  -11.5542    0.0000 N   0  0  0  0  0  0  0  0  0  0  0  0
    6.6375  -11.8167    0.0000 C   0  0  0  0  0  0  0  0  0  0  0  0
    7.9167  -12.2292    0.0000 C   0  0  0  0  0  0  0  0  0  0  0  0
   10.9792  -14.1417    0.0000 C   0  0  0  0  0  0  0  0  0  0  0  0
    5.9167  -11.4042    0.0000 C   0  0  0  0  0  0  0  0  0  0  0  0
    5.2042  -11.8250    0.0000 C   0  0  0  0  0  0  0  0  0  0  0  0
    4.4917  -11.4125    0.0000 N   0  0  0  0  0  0  0  0  0  0  0  0
    5.9167  -13.0625    0.0000 N   0  0  0  0  0  0  0  0  0  0  0  0
   10.3125  -13.6542    0.0000 N   0  0  0  0  0  0  0  0  0  0  0  0
   10.5667  -12.8750    0.0000 N   0  0  0  0  0  0  0  0  0  0  0  0
    4.4917  -10.5875    0.0000 C   0  0  0  0  0  0  0  0  0  0  0  0
   11.6417  -13.6542    0.0000 N   0  0  0  0  0  0  0  0  0  0  0  0
   11.3917  -12.8667    0.0000 N   0  0  0  0  0  0  0  0  0  0  0  0
   10.9875  -14.9667    0.0000 C   0  0  0  0  0  0  0  0  0  0  0  0
    5.2042  -12.6417    0.0000 C   0  0  0  0  0  0  0  0  0  0  0  0
   10.2667  -15.3792    0.0000 C   0  0  0  0  0  0  0  0  0  0  0  0
    7.4292  -13.7292    0.0000 C   0  0  0  0  0  0  0  0  0  0  0  0
    9.5625  -14.9667    0.0000 C   0  0  0  0  0  0  0  0  0  0  0  0
    5.2042  -10.1667    0.0000 O   0  0  0  0  0  0  0  0  0  0  0  0
    3.7792  -10.1750    0.0000 C   0  0  0  0  0  0  0  0  0  0  0  0
    9.5542  -14.1375    0.0000 C   0  0  0  0  0  0  0  0  0  0  0  0
    8.8417  -15.3750    0.0000 C   0  0  0  0  0  0  0  0  0  0  0  0
    8.1417  -14.1417    0.0000 C   0  0  0  0  0  0  0  0  0  0  0  0
    8.7417  -12.2167    0.0000 C   0  0  0  0  0  0  0  0  0  0  0  0
    5.9167  -10.5792    0.0000 C   0  0  0  0  0  0  0  0  0  0  0  0
    8.1375  -14.9625    0.0000 C   0  0  0  0  0  0  0  0  0  0  0  0
    8.8500  -13.7292    0.0000 C   0  0  0  0  0  0  0  0  0  0  0  0
    3.7792  -11.8250    0.0000 C   0  0  0  0  0  0  0  0  0  0  0  0
   11.7000  -15.3750    0.0000 C   0  0  0  0  0  0  0  0  0  0  0  0
   10.2667  -16.2042    0.0000 C   0  0  0  0  0  0  0  0  0  0  0  0
    3.7792   -9.3500    0.0000 C   0  0  0  0  0  0  0  0  0  0  0  0
    3.0750  -10.5875    0.0000 C   0  0  0  0  0  0  0  0  0  0  0  0
    9.1500  -11.5042    0.0000 C   0  0  0  0  0  0  0  0  0  0  0  0
    3.0667  -11.4125    0.0000 C   0  0  0  0  0  0  0  0  0  0  0  0
    9.9667  -11.4917    0.0000 C   0  0  0  0  0  0  0  0  0  0  0  0
    2.3500  -11.8167    0.0000 C   0  0  0  0  0  0  0  0  0  0  0  0
   10.9875  -16.6167    0.0000 C   0  0  0  0  0  0  0  0  0  0  0  0
   11.7042  -16.2042    0.0000 C   0  0  0  0  0  0  0  0  0  0  0  0
   10.3792  -10.7750    0.0000 C   0  0  0  0  0  0  0  0  0  0  0  0
    1.6375  -11.4000    0.0000 C   0  0  0  0  0  0  0  0  0  0  0  0
    3.0667   -8.9375    0.0000 C   0  0  0  0  0  0  0  0  0  0  0  0
    2.3542  -10.1792    0.0000 C   0  0  0  0  0  0  0  0  0  0  0  0
    2.3542   -9.3500    0.0000 C   0  0  0  0  0  0  0  0  0  0  0  0
  2  1  1  0
  3  5  2  0
  4  2  2  0
  5  1  1  0
  6 16  1  0
  7  4  1  0
  8 17  1  0
  9  8  1  0
 10  2  1  0
 11  6  1  0
 12 11  1  0
 13  9  1  0
 14  6  2  0
 15 14  1  0
 16 18  1  0
 17 10  2  0
 18 20  1  0
 19  1  1  0
 20 23  2  0
 21 13  2  0
 22 13  1  0
 23 29  1  0
 24 28  2  0
 25 19  1  0
 26  5  1  0
 27  7  1  0
 28 25  1  0
 29 25  2  0
 30  9  1  0
 31 16  2  0
 32 18  2  0
 33 22  2  0
 34 22  1  0
 35 26  1  0
 36 30  1  0
 37 35  1  0
 38 36  1  0
 39 32  1  0
 40 39  2  0
 41 37  1  0
 42 38  1  0
 43 33  1  0
 44 34  2  0
 45 44  1  0
  4  3  1  0
 20 24  1  0
  8  7  2  0
 40 31  1  0
 12 15  2  0
 45 43  2  0
M  END
>  <From>  (1) 
www.bindingDB.org

>  <BindingDB Reactant_set_id>  (1) 
50467411

>  <Ligand InChI>  (1) 
InChI=1S/C36H38N8O/c1-4-6-17-32-38-33-25(3)31(43(22-7-5-2)36(45)28-13-9-8-10-14-28)23-37-35(33)44(32)24-26-18-20-27(21-19-26)29-15-11-12-16-30(29)34-39-41-42-40-34/h8-16,18-21,23H,4-7,17,22,24H2,1-3H3,(H,39,40,41,42)

>  <Ligand InChI Key>  (1) 
MUVSJTOXNTYMCI-UHFFFAOYSA-N

>  <BindingDB MonomerID>  (1) 
50282278

>  <BindingDB Ligand Name>  (1) 
CHEMBL307757::N-Butyl-N-{2-butyl-7-methyl-3-[2'-(2H-tetrazol-5-yl)-biphenyl-4-ylmethyl]-3H-imidazo[4,5-b]pyridin-6-yl}-benzamide

>  <Target Name>  (1) 
Type-1 angiotensin II receptor

>  <Target Source Organism According to Curator or DataSource>  (1) 
Oryctolagus cuniculus

>  <Ki (nM)>  (1) 


>  <IC50 (nM)>  (1) 
 0.6

>  <Kd (nM)>  (1) 


>  <EC50 (nM)>  (1) 


>  <kon (M-1-s-1)>  (1) 


>  <koff (s-1)>  (1) 


>  <pH>  (1) 


>  <Temp C>  (1) 


>  <Curation/DataSource>  (1) 
ChEMBL

>  <Article DOI>  (1) 
10.1016/S0960-894X(01)81115-X

>  <BindingDB Entry DOI>  (1) 
10.7270/Q2G73DPF

>  <PMID>  (1) 


>  <PubChem AID>  (1) 


>  <Patent Number>  (1) 


>  <Authors>  (1) 
Mantlo, NB; Kim, D; Ondeyka, D; Chang, RS; Kivlighn, SD; Siegl, PK; Greenlee, WJ

>  <Institution>  (1) 
TBA

>  <Link to Ligand in BindingDB>  (1) 
http://www.bindingdb.org/bind/chemsearch/marvin/MolStructure.jsp?monomerid=50282278

>  <Link to Ligand-Target Pair in BindingDB>  (1) 
http://www.bindingdb.org/jsp/dbsearch/PrimarySearch_ki.jsp?energyterm=kJ/mole&tag=r21&monomerid=50282278&enzyme=Type-1+angiotensin+II+receptor&column=ki&startPg=0&Increment=50&submit=Search

>  <Ligand HET ID in PDB>  (1) 


>  <PDB ID(s) for Ligand-Target Complex>  (1) 


>  <PubChem CID of Ligand>  (1) 
44309902

>  <PubChem SID of Ligand>  (1) 
104123952

>  <ChEBI ID of Ligand>  (1) 


>  <ChEMBL ID of Ligand>  (1) 
CHEMBL307757

>  <DrugBank ID of Ligand>  (1) 


>  <IUPHAR_GRAC ID of Ligand>  (1) 


>  <KEGG ID of Ligand>  (1) 


>  <ZINC ID of Ligand>  (1) 
ZINC26282334

>  <Number of Protein Chains in Target (bigger than 1 implies a multichain complex)>  (1) 
1

>  <BindingDB Target Chain Sequence>  (1) 
MMLNSSTEDGIKRIQDDCPKAGRHNYIFVMIPTLYSIIFVVGIFGNSLAVIVIYFYMKLKTVASVFLLNLALADLCFLLTLPLWAVYTAMEYRWPFGNYLCKIASASVSFNLYASVFLLTCLSIDRYLAIVHPMKSRLRRTMLVAKVTCIIIWLLAGLASLPAIIHRNVFFIENTNITVCAFHYESQNSTLPIGLGLTKNILGFLFPFLIILTSYTLIWKALKKAYEIQKNKPRNDDIFKIIMAIVLFFFFSWVPHQIFTFLDVLIQLGVIHDCRIADIVDTAMPITICIAYFNNCLNPLFYGFLGKKFKKYFLQLLKYIPPKAKSHSNLSTKMSTLSYRPSDNVSSSSKKPVPCFEVE

>  <PDB ID(s) of Target Chain>  (1) 
6DO1,6OS0,6OS1,6OS2

>  <UniProt (SwissProt) Recommended Name of Target Chain>  (1) 
Type-1 angiotensin II receptor

>  <UniProt (SwissProt) Entry Name of Target Chain>  (1) 
AGTR1_RABIT

>  <UniProt (SwissProt) Primary ID of Target Chain>  (1) 
P34976

>  <UniProt (SwissProt) Secondary ID(s) of Target Chain>  (1) 


>  <UniProt (SwissProt) Alternative ID(s) of Target Chain>  (1) 


>  <UniProt (TrEMBL) Submitted Name of Target Chain>  (1) 


>  <UniProt (TrEMBL) Entry Name of Target Chain>  (1) 


>  <UniProt (TrEMBL) Primary ID of Target Chain>  (1) 


>  <UniProt (TrEMBL) Secondary ID(s) of Target Chain>  (1) 


>  <UniProt (TrEMBL) Alternative ID(s) of Target Chain>  (1) 


$$$$
