
     RDKit          2D

 32 36  0  0  0  0  0  0  0  0999 V2000
   12.6402    1.6834    0.0000 C   0  0  0  0  0  0  0  0  0  0  0  0
   12.6391    0.8560    0.0000 C   0  0  0  0  0  0  0  0  0  0  0  0
   13.3539    0.4431    0.0000 C   0  0  0  0  0  0  0  0  0  0  0  0
   13.3521    2.0961    0.0000 C   0  0  0  0  0  0  0  0  0  0  0  0
   14.0675    1.6870    0.0000 C   0  0  0  0  0  0  0  0  0  0  0  0
   14.0677    0.8606    0.0000 C   0  0  0  0  0  0  0  0  0  0  0  0
   14.8538    0.6054    0.0000 N   0  0  0  0  0  0  0  0  0  0  0  0
   15.3395    1.2742    0.0000 C   0  0  0  0  0  0  0  0  0  0  0  0
   14.8534    1.9426    0.0000 N   0  0  0  0  0  0  0  0  0  0  0  0
   13.3557   -0.3841    0.0000 C   0  0  0  0  0  0  0  0  0  0  0  0
   12.6424   -0.7985    0.0000 O   0  0  0  0  0  0  0  0  0  0  0  0
   14.0713   -0.7947    0.0000 O   0  0  0  0  0  0  0  0  0  0  0  0
   15.1090   -0.1792    0.0000 C   0  0  0  0  0  0  0  0  0  0  0  0
   15.9160   -0.3505    0.0000 C   0  0  0  0  0  0  0  0  0  0  0  0
   16.1693   -1.1363    0.0000 C   0  0  0  0  0  0  0  0  0  0  0  0
   16.9755   -1.3077    0.0000 C   0  0  0  0  0  0  0  0  0  0  0  0
   17.5283   -0.6941    0.0000 C   0  0  0  0  0  0  0  0  0  0  0  0
   17.2693    0.0937    0.0000 C   0  0  0  0  0  0  0  0  0  0  0  0
   16.4637    0.2614    0.0000 C   0  0  0  0  0  0  0  0  0  0  0  0
   18.3356   -0.8644    0.0000 N   0  0  0  0  0  0  0  0  0  0  0  0
   18.6732   -1.6144    0.0000 C   0  0  0  0  0  0  0  0  0  0  0  0
   19.4935   -1.5268    0.0000 C   0  0  0  0  0  0  0  0  0  0  0  0
   19.6638   -0.7195    0.0000 C   0  0  0  0  0  0  0  0  0  0  0  0
   18.9486   -0.3083    0.0000 C   0  0  0  0  0  0  0  0  0  0  0  0
   18.8613    0.5076    0.0000 C   0  0  0  0  0  0  0  0  0  0  0  0
   19.4729    1.0614    0.0000 N   0  0  0  0  0  0  0  0  0  0  0  0
   19.1353    1.8141    0.0000 N   0  0  0  0  0  0  0  0  0  0  0  0
   18.3150    1.7256    0.0000 N   0  0  0  0  0  0  0  0  0  0  0  0
   18.1458    0.9182    0.0000 N   0  0  0  0  0  0  0  0  0  0  0  0
   12.6446   -1.6235    0.0000 C   0  0  0  0  0  0  0  0  0  0  0  0
   16.1645    1.2745    0.0000 C   0  0  0  0  0  0  0  0  0  0  0  0
   16.5767    1.9891    0.0000 C   0  0  0  0  0  0  0  0  0  0  0  0
  5  4  1  0
 15 16  2  0
  6  7  1  0
 16 17  1  0
  7  8  1  0
 17 18  2  0
  8  9  2  0
 18 19  1  0
 19 14  2  0
  9  5  1  0
 17 20  1  0
 20 21  1  0
  4  1  2  0
  5  6  2  0
 10 11  1  0
 21 22  2  0
 22 23  1  0
 23 24  2  0
 24 20  1  0
 25 26  1  0
 10 12  2  0
  3 10  1  0
  2  3  2  0
  7 13  1  0
  3  6  1  0
 26 27  1  0
 27 28  2  0
 28 29  1  0
 29 25  2  0
 24 25  1  0
 13 14  1  0
 11 30  1  0
  1  2  1  0
  8 31  1  0
 14 15  1  0
 31 32  1  0
M  END
>  <From>  (1) 
www.bindingDB.org

>  <BindingDB Reactant_set_id>  (1) 
50381238

>  <Ligand InChI>  (1) 
InChI=1S/C23H21N7O2/c1-3-20-24-18-7-4-6-17(23(31)32-2)21(18)30(20)14-15-9-11-16(12-10-15)29-13-5-8-19(29)22-25-27-28-26-22/h4-13H,3,14H2,1-2H3,(H,25,26,27,28)

>  <Ligand InChI Key>  (1) 
ADNLDCNKXXQYRA-UHFFFAOYSA-N

>  <BindingDB MonomerID>  (1) 
50209821

>  <BindingDB Ligand Name>  (1) 
CHEMBL241684::methyl 3-(4-(2-(1H-tetrazol-5-yl)-1H-pyrrol-1-yl)benzyl)-2-ethyl-3H-benzo[d]imidazole-4-carboxylate

>  <Target Name>  (1) 
Type-1 angiotensin II receptor

>  <Target Source Organism According to Curator or DataSource>  (1) 
Bos taurus

>  <Ki (nM)>  (1) 


>  <IC50 (nM)>  (1) 
 140

>  <Kd (nM)>  (1) 


>  <EC50 (nM)>  (1) 


>  <kon (M-1-s-1)>  (1) 


>  <koff (s-1)>  (1) 


>  <pH>  (1) 


>  <Temp C>  (1) 


>  <Curation/DataSource>  (1) 
ChEMBL

>  <Article DOI>  (1) 
10.1016/j.bmcl.2007.02.042

>  <BindingDB Entry DOI>  (1) 
10.7270/Q2C82908

>  <PMID>  (1) 
17412584

>  <PubChem AID>  (1) 


>  <Patent Number>  (1) 


>  <Authors>  (1) 
Xu, JY; Zeng, Y; Ran, Q; Wei, Z; Bi, Y; He, QH; Wang, QJ; Hu, S; Zhang, J; Tang, MY; Hua, WY; Wu, XM

>  <Institution>  (1) 
China Pharmaceutical University

>  <Link to Ligand in BindingDB>  (1) 
http://www.bindingdb.org/bind/chemsearch/marvin/MolStructure.jsp?monomerid=50209821

>  <Link to Ligand-Target Pair in BindingDB>  (1) 
http://www.bindingdb.org/jsp/dbsearch/PrimarySearch_ki.jsp?energyterm=kJ/mole&tag=r21&monomerid=50209821&enzyme=Type-1+angiotensin+II+receptor&column=ki&startPg=0&Increment=50&submit=Search

>  <Ligand HET ID in PDB>  (1) 


>  <PDB ID(s) for Ligand-Target Complex>  (1) 


>  <PubChem CID of Ligand>  (1) 
44438868

>  <PubChem SID of Ligand>  (1) 
104086509

>  <ChEBI ID of Ligand>  (1) 


>  <ChEMBL ID of Ligand>  (1) 
CHEMBL241684

>  <DrugBank ID of Ligand>  (1) 


>  <IUPHAR_GRAC ID of Ligand>  (1) 


>  <KEGG ID of Ligand>  (1) 


>  <ZINC ID of Ligand>  (1) 
ZINC28885317

>  <Number of Protein Chains in Target (bigger than 1 implies a multichain complex)>  (1) 
1

>  <BindingDB Target Chain Sequence>  (1) 
MILNSSTEDGIKRIQDDCPKAGRHNYIFIMIPTLYSIIFVVGIFGNSLVVIVIYFYMKLKTVASVFLLNLALADLCFLLTLPLWAVYTAMEYRWPFGNYLCKIASASVSFNLYASVFLLTCLSIDRYLAIVHPMKSRLRRTMLVAKVTCIIIWLLAGLASLPTIIHRNVFFIENTNITVCAFHYESQNSTLPVGLGLTKNILGFLFPFLIILTSYTLIWKTLKKAYEIQKNKPRKDDIFKIILAIVLFFFFSWVPHQIFTFMDVLIQLGLIRDCKIEDIVDTAMPITICLAYFNNCLNPLFYGFLGKKFKKYFLQLLKYIPPKAKSHSNLSTKMSTLSYRPSENGNSSTKKPAPCIEVE

>  <PDB ID(s) of Target Chain>  (1) 


>  <UniProt (SwissProt) Recommended Name of Target Chain>  (1) 
Type-1 angiotensin II receptor

>  <UniProt (SwissProt) Entry Name of Target Chain>  (1) 
AGTR1_BOVIN

>  <UniProt (SwissProt) Primary ID of Target Chain>  (1) 
P25104

>  <UniProt (SwissProt) Secondary ID(s) of Target Chain>  (1) 


>  <UniProt (SwissProt) Alternative ID(s) of Target Chain>  (1) 


>  <UniProt (TrEMBL) Submitted Name of Target Chain>  (1) 


>  <UniProt (TrEMBL) Entry Name of Target Chain>  (1) 


>  <UniProt (TrEMBL) Primary ID of Target Chain>  (1) 


>  <UniProt (TrEMBL) Secondary ID(s) of Target Chain>  (1) 


>  <UniProt (TrEMBL) Alternative ID(s) of Target Chain>  (1) 


$$$$
