
     RDKit          2D

 48 51  0  0  0  0  0  0  0  0999 V2000
    0.3494   -4.7131    0.0000 N   0  0  0  0  0  0  0  0  0  0  0  0
    0.6586   -6.0130    0.0000 N   0  0  0  0  0  0  0  0  0  0  0  0
    0.9679   -5.2457    0.0000 C   0  0  0  0  0  0  0  0  0  0  0  0
    4.3523   -5.2113    0.0000 S   0  0  0  0  0  0  0  0  0  0  0  0
   -0.3550   -5.1426    0.0000 N   0  0  0  0  0  0  0  0  0  0  0  0
   -0.1660   -5.9501    0.0000 C   0  0  0  0  0  0  0  0  0  0  0  0
    0.4181   -3.8885    0.0000 C   0  0  0  0  0  0  0  0  0  0  0  0
    4.7475   -4.4898    0.0000 N   0  0  0  0  0  0  0  0  0  0  0  0
    1.0881   -6.7174    0.0000 C   0  0  0  0  0  0  0  0  0  0  0  0
    4.7818   -5.9157    0.0000 C   0  0  0  0  0  0  0  0  0  0  0  0
    5.5721   -4.4726    0.0000 C   0  0  0  0  0  0  0  0  0  0  0  0
    1.1568   -3.5449    0.0000 C   0  0  0  0  0  0  0  0  0  0  0  0
    1.9128   -6.6888    0.0000 C   0  0  0  0  0  0  0  0  0  0  0  0
    4.3809   -6.6373    0.0000 C   0  0  0  0  0  0  0  0  0  0  0  0
    3.5620   -6.6544    0.0000 C   0  0  0  0  0  0  0  0  0  0  0  0
    1.9643   -2.3708    0.0000 C   0  0  0  0  0  0  0  0  0  0  0  0
    1.2256   -2.7202    0.0000 C   0  0  0  0  0  0  0  0  0  0  0  0
    2.3365   -7.3932    0.0000 C   0  0  0  0  0  0  0  0  0  0  0  0
    3.6651   -4.5928    0.0000 O   0  0  0  0  0  0  0  0  0  0  0  0
    3.8999   -5.9271    0.0000 O   0  0  0  0  0  0  0  0  0  0  0  0
    3.1611   -7.3760    0.0000 C   0  0  0  0  0  0  0  0  0  0  0  0
    1.7753   -5.0567    0.0000 O   0  0  0  0  0  0  0  0  0  0  0  0
   -0.2691   -3.4246    0.0000 C   0  0  0  0  0  0  0  0  0  0  0  0
    5.9672   -3.7510    0.0000 O   0  0  0  0  0  0  0  0  0  0  0  0
    6.0016   -5.1770    0.0000 O   0  0  0  0  0  0  0  0  0  0  0  0
    2.3079   -5.9672    0.0000 C   0  0  0  0  0  0  0  0  0  0  0  0
    3.1325   -5.9501    0.0000 C   0  0  0  0  0  0  0  0  0  0  0  0
    2.6515   -2.8347    0.0000 O   0  0  0  0  0  0  0  0  0  0  0  0
    0.5498   -2.2506    0.0000 C   0  0  0  0  0  0  0  0  0  0  0  0
   -0.2004   -2.6114    0.0000 C   0  0  0  0  0  0  0  0  0  0  0  0
    6.7919   -3.7338    0.0000 C   0  0  0  0  0  0  0  0  0  0  0  0
    2.0330   -1.5462    0.0000 N   0  0  0  0  0  0  0  0  0  0  0  0
    1.9128   -8.1090    0.0000 F   0  0  0  0  0  0  0  0  0  0  0  0
   -1.0079   -3.7854    0.0000 Br  0  0  0  0  0  0  0  0  0  0  0  0
   -0.6986   -6.5685    0.0000 C   0  0  0  0  0  0  0  0  0  0  0  0
    5.6007   -5.8985    0.0000 C   0  0  0  0  0  0  0  0  0  0  0  0
    4.8104   -7.3417    0.0000 C   0  0  0  0  0  0  0  0  0  0  0  0
    7.1984   -3.0123    0.0000 C   0  0  0  0  0  0  0  0  0  0  0  0
    7.6165   -3.7338    0.0000 C   0  0  0  0  0  0  0  0  0  0  0  0
    7.2214   -4.4496    0.0000 C   0  0  0  0  0  0  0  0  0  0  0  0
    2.7832   -1.1912    0.0000 C   0  0  0  0  0  0  0  0  0  0  0  0
   -0.4237   -7.3531    0.0000 C   0  0  0  0  0  0  0  0  0  0  0  0
    2.8405   -0.3780    0.0000 C   0  0  0  0  0  0  0  0  0  0  0  0
    3.5792   -0.0172    0.0000 C   0  0  0  0  0  0  0  0  0  0  0  0
    5.6236   -7.3359    0.0000 C   0  0  0  0  0  0  0  0  0  0  0  0
    6.0302   -6.6143    0.0000 C   0  0  0  0  0  0  0  0  0  0  0  0
    3.6479    0.8075    0.0000 C   0  0  0  0  0  0  0  0  0  0  0  0
   -0.9621   -7.9773    0.0000 C   0  0  0  0  0  0  0  0  0  0  0  0
  2  3  1  0
  3  1  1  0
  4 10  1  0
  5  1  1  0
  6  5  2  0
  7  1  1  0
  8  4  1  0
  9  2  1  0
 10 14  2  0
 11  8  1  0
 12  7  2  0
 13  9  1  0
 14 15  1  0
 15 27  1  0
 16 17  1  0
 17 12  1  0
 18 13  2  0
 19  4  2  0
 20  4  2  0
 21 18  1  0
 22  3  2  0
 23  7  1  0
 24 11  1  0
 25 11  2  0
 26 13  1  0
 27 26  2  0
 28 16  2  0
 29 30  1  0
 30 23  2  0
 31 24  1  0
 32 16  1  0
 33 18  1  0
 34 23  1  0
 35  6  1  0
 36 10  1  0
 37 14  1  0
 38 31  1  0
 39 31  1  0
 40 31  1  0
 41 32  1  0
 42 35  1  0
 43 41  1  0
 44 43  1  0
 45 37  2  0
 46 45  1  0
 47 44  1  0
 48 42  1  0
  6  2  1  0
 17 29  2  0
 21 15  2  0
 36 46  2  0
M  END
>  <From>  (1) 
www.bindingDB.org

>  <BindingDB Reactant_set_id>  (1) 
51183711

>  <Ligand InChI>  (1) 
InChI=1S/C34H39BrFN5O6S/c1-6-8-18-37-31(42)23-16-17-26(35)28(20-23)41-33(44)40(30(38-41)11-7-2)21-24-15-14-22(19-27(24)36)25-12-9-10-13-29(25)48(45,46)39-32(43)47-34(3,4)5/h9-10,12-17,19-20H,6-8,11,18,21H2,1-5H3,(H,37,42)(H,39,43)

>  <Ligand InChI Key>  (1) 
CWWVFQMJNYJQKE-UHFFFAOYSA-N

>  <BindingDB MonomerID>  (1) 
50030696

>  <BindingDB Ligand Name>  (1) 
4-Bromo-N-butyl-3-[4-(3-fluoro-2'-(N-t-butyloxycarbonyl)-Sulfanamido-biphenyl-4-ylmethyl)-5-oxo-3-propyl-4,5-dihydro-[1,2,4]triazol-1-yl]-benzamide::CHEMBL121872

>  <Target Name>  (1) 
Type-1 angiotensin II receptor

>  <Target Source Organism According to Curator or DataSource>  (1) 
Oryctolagus cuniculus

>  <Ki (nM)>  (1) 


>  <IC50 (nM)>  (1) 
 0.280000

>  <Kd (nM)>  (1) 


>  <EC50 (nM)>  (1) 


>  <kon (M-1-s-1)>  (1) 


>  <koff (s-1)>  (1) 


>  <pH>  (1) 


>  <Temp C>  (1) 


>  <Curation/DataSource>  (1) 
ChEMBL

>  <Article DOI>  (1) 
10.1007/s00044-011-9815-x

>  <BindingDB Entry DOI>  (1) 
10.7270/Q2VT1W0S

>  <PMID>  (1) 


>  <PubChem AID>  (1) 


>  <Patent Number>  (1) 


>  <Authors>  (1) 
n/a

>  <Institution>  (1) 
n/a

>  <Link to Ligand in BindingDB>  (1) 
http://www.bindingdb.org/bind/chemsearch/marvin/MolStructure.jsp?monomerid=50030696

>  <Link to Ligand-Target Pair in BindingDB>  (1) 
http://www.bindingdb.org/jsp/dbsearch/PrimarySearch_ki.jsp?energyterm=kJ/mole&tag=r21&monomerid=50030696&enzyme=Type-1+angiotensin+II+receptor&column=ki&startPg=0&Increment=50&submit=Search

>  <Ligand HET ID in PDB>  (1) 


>  <PDB ID(s) for Ligand-Target Complex>  (1) 


>  <PubChem CID of Ligand>  (1) 
11765560

>  <PubChem SID of Ligand>  (1) 
103939544

>  <ChEBI ID of Ligand>  (1) 


>  <ChEMBL ID of Ligand>  (1) 
CHEMBL121872

>  <DrugBank ID of Ligand>  (1) 


>  <IUPHAR_GRAC ID of Ligand>  (1) 


>  <KEGG ID of Ligand>  (1) 


>  <ZINC ID of Ligand>  (1) 
ZINC95547549

>  <Number of Protein Chains in Target (bigger than 1 implies a multichain complex)>  (1) 
1

>  <BindingDB Target Chain Sequence>  (1) 
MMLNSSTEDGIKRIQDDCPKAGRHNYIFVMIPTLYSIIFVVGIFGNSLAVIVIYFYMKLKTVASVFLLNLALADLCFLLTLPLWAVYTAMEYRWPFGNYLCKIASASVSFNLYASVFLLTCLSIDRYLAIVHPMKSRLRRTMLVAKVTCIIIWLLAGLASLPAIIHRNVFFIENTNITVCAFHYESQNSTLPIGLGLTKNILGFLFPFLIILTSYTLIWKALKKAYEIQKNKPRNDDIFKIIMAIVLFFFFSWVPHQIFTFLDVLIQLGVIHDCRIADIVDTAMPITICIAYFNNCLNPLFYGFLGKKFKKYFLQLLKYIPPKAKSHSNLSTKMSTLSYRPSDNVSSSSKKPVPCFEVE

>  <PDB ID(s) of Target Chain>  (1) 
6DO1,6OS0,6OS1,6OS2

>  <UniProt (SwissProt) Recommended Name of Target Chain>  (1) 
Type-1 angiotensin II receptor

>  <UniProt (SwissProt) Entry Name of Target Chain>  (1) 
AGTR1_RABIT

>  <UniProt (SwissProt) Primary ID of Target Chain>  (1) 
P34976

>  <UniProt (SwissProt) Secondary ID(s) of Target Chain>  (1) 


>  <UniProt (SwissProt) Alternative ID(s) of Target Chain>  (1) 


>  <UniProt (TrEMBL) Submitted Name of Target Chain>  (1) 


>  <UniProt (TrEMBL) Entry Name of Target Chain>  (1) 


>  <UniProt (TrEMBL) Primary ID of Target Chain>  (1) 


>  <UniProt (TrEMBL) Secondary ID(s) of Target Chain>  (1) 


>  <UniProt (TrEMBL) Alternative ID(s) of Target Chain>  (1) 


$$$$
