
     RDKit          2D

 46 52  0  0  0  0  0  0  0  0999 V2000
    6.1021   -6.0787    0.0000 N   0  0  0  0  0  0  0  0  0  0  0  0
    5.3895   -5.6699    0.0000 C   0  0  0  0  0  0  0  0  0  0  0  0
    4.6769   -6.0904    0.0000 C   0  0  0  0  0  0  0  0  0  0  0  0
    6.1099   -6.9082    0.0000 C   0  0  0  0  0  0  0  0  0  0  0  0
    5.3972   -7.3288    0.0000 N   0  0  0  0  0  0  0  0  0  0  0  0
   10.3778   -6.0515    0.0000 C   0  0  0  0  0  0  0  0  0  0  0  0
    1.8224   -6.0904    0.0000 C   0  0  0  0  0  0  0  0  0  0  0  0
    9.9573   -4.7820    0.0000 N   0  0  0  0  0  0  0  0  0  0  0  0
    2.5390   -5.6815    0.0000 N   0  0  0  0  0  0  0  0  0  0  0  0
    9.7080   -5.5725    0.0000 N   0  0  0  0  0  0  0  0  0  0  0  0
   10.7828   -4.7781    0.0000 N   0  0  0  0  0  0  0  0  0  0  0  0
    4.6769   -6.9159    0.0000 C   0  0  0  0  0  0  0  0  0  0  0  0
   11.0437   -5.5608    0.0000 N   0  0  0  0  0  0  0  0  0  0  0  0
    3.9642   -5.6776    0.0000 C   0  0  0  0  0  0  0  0  0  0  0  0
    3.2516   -6.0904    0.0000 C   0  0  0  0  0  0  0  0  0  0  0  0
   10.3895   -6.8731    0.0000 C   0  0  0  0  0  0  0  0  0  0  0  0
    1.1098   -5.6815    0.0000 C   0  0  0  0  0  0  0  0  0  0  0  0
    9.6847   -7.2937    0.0000 C   0  0  0  0  0  0  0  0  0  0  0  0
    6.8147   -5.6659    0.0000 C   0  0  0  0  0  0  0  0  0  0  0  0
    0.3271   -5.9386    0.0000 S   0  0  0  0  0  0  0  0  0  0  0  0
    5.3856   -4.8482    0.0000 O   0  0  0  0  0  0  0  0  0  0  0  0
    2.5351   -4.8521    0.0000 C   0  0  0  0  0  0  0  0  0  0  0  0
    8.9643   -6.8926    0.0000 C   0  0  0  0  0  0  0  0  0  0  0  0
    1.8224   -6.9199    0.0000 O   0  0  0  0  0  0  0  0  0  0  0  0
    1.1137   -4.8599    0.0000 C   0  0  0  0  0  0  0  0  0  0  0  0
    3.9642   -7.3288    0.0000 C   0  0  0  0  0  0  0  0  0  0  0  0
   -0.1596   -5.2727    0.0000 C   0  0  0  0  0  0  0  0  0  0  0  0
    3.2516   -6.9199    0.0000 C   0  0  0  0  0  0  0  0  0  0  0  0
    0.3271   -4.6028    0.0000 C   0  0  0  0  0  0  0  0  0  0  0  0
    8.9604   -6.0554    0.0000 C   0  0  0  0  0  0  0  0  0  0  0  0
    8.2517   -7.3054    0.0000 C   0  0  0  0  0  0  0  0  0  0  0  0
    7.5351   -6.0748    0.0000 C   0  0  0  0  0  0  0  0  0  0  0  0
    6.8264   -7.3171    0.0000 C   0  0  0  0  0  0  0  0  0  0  0  0
    3.2516   -4.4393    0.0000 C   0  0  0  0  0  0  0  0  0  0  0  0
    8.2400   -5.6582    0.0000 C   0  0  0  0  0  0  0  0  0  0  0  0
    7.5390   -6.8965    0.0000 C   0  0  0  0  0  0  0  0  0  0  0  0
   11.1099   -7.2820    0.0000 C   0  0  0  0  0  0  0  0  0  0  0  0
    9.6886   -8.1231    0.0000 C   0  0  0  0  0  0  0  0  0  0  0  0
    3.9603   -4.8521    0.0000 C   0  0  0  0  0  0  0  0  0  0  0  0
    3.2399   -3.6215    0.0000 C   0  0  0  0  0  0  0  0  0  0  0  0
    6.8264   -8.1465    0.0000 C   0  0  0  0  0  0  0  0  0  0  0  0
   10.4012   -8.5281    0.0000 C   0  0  0  0  0  0  0  0  0  0  0  0
   11.1216   -8.1115    0.0000 C   0  0  0  0  0  0  0  0  0  0  0  0
    3.9526   -3.2049    0.0000 C   0  0  0  0  0  0  0  0  0  0  0  0
    4.6769   -4.4432    0.0000 C   0  0  0  0  0  0  0  0  0  0  0  0
    4.6769   -3.6138    0.0000 C   0  0  0  0  0  0  0  0  0  0  0  0
  2  1  1  0
  3  2  1  0
  4  1  1  0
  5  4  2  0
  6 16  1  0
  7  9  1  0
  8 10  1  0
  9 15  1  0
 10  6  1  0
 11 13  1  0
 12  5  1  0
 13  6  2  0
 14  3  2  0
 15 14  1  0
 16 18  1  0
 17  7  1  0
 18 23  1  0
 19  1  1  0
 20 17  1  0
 21  2  2  0
 22  9  1  0
 23 31  2  0
 24  7  2  0
 25 17  2  0
 26 12  2  0
 27 20  1  0
 28 26  1  0
 29 25  1  0
 30 35  2  0
 31 36  1  0
 32 19  1  0
 33  4  1  0
 34 22  1  0
 35 32  1  0
 36 32  2  0
 37 16  2  0
 38 18  2  0
 39 34  2  0
 40 34  1  0
 41 33  1  0
 42 38  1  0
 43 42  2  0
 44 40  2  0
 45 39  1  0
 46 44  1  0
  3 12  1  0
 30 23  1  0
 15 28  2  0
 37 43  1  0
 29 27  2  0
 11  8  2  0
 45 46  2  0
M  END
>  <From>  (1) 
www.bindingDB.org

>  <BindingDB Reactant_set_id>  (1) 
50002895

>  <Ligand InChI>  (1) 
InChI=1S/C36H29N7O2S/c1-2-33-37-31-19-18-27(42(22-24-9-4-3-5-10-24)36(45)32-13-8-20-46-32)21-30(31)35(44)43(33)23-25-14-16-26(17-15-25)28-11-6-7-12-29(28)34-38-40-41-39-34/h3-21H,2,22-23H2,1H3,(H,38,39,40,41)

>  <Ligand InChI Key>  (1) 
KDPHUUTUDFDLBT-UHFFFAOYSA-N

>  <BindingDB MonomerID>  (1) 
50282708

>  <BindingDB Ligand Name>  (1) 
CHEMBL289472::Thiophene-2-carboxylic acid benzyl-{2-ethyl-4-oxo-3-[2'-(1H-tetrazol-5-yl)-biphenyl-4-ylmethyl]-3,4-dihydro-quinazolin-6-yl}-amide

>  <Target Name>  (1) 
Type-1 angiotensin II receptor

>  <Target Source Organism According to Curator or DataSource>  (1) 
Oryctolagus cuniculus

>  <Ki (nM)>  (1) 


>  <IC50 (nM)>  (1) 
 200

>  <Kd (nM)>  (1) 


>  <EC50 (nM)>  (1) 


>  <kon (M-1-s-1)>  (1) 


>  <koff (s-1)>  (1) 


>  <pH>  (1) 


>  <Temp C>  (1) 


>  <Curation/DataSource>  (1) 
ChEMBL

>  <Article DOI>  (1) 
10.1016/S0960-894X(01)80517-5

>  <BindingDB Entry DOI>  (1) 
10.7270/Q2BC401G

>  <PMID>  (1) 


>  <PubChem AID>  (1) 


>  <Patent Number>  (1) 


>  <Authors>  (1) 
Glinka, TW; de Laszlo, SE; Tran, J; Chang, RS; Chen, T; Lotti, VJ; Greenlee, WJ

>  <Institution>  (1) 
TBA

>  <Link to Ligand in BindingDB>  (1) 
http://www.bindingdb.org/bind/chemsearch/marvin/MolStructure.jsp?monomerid=50282708

>  <Link to Ligand-Target Pair in BindingDB>  (1) 
http://www.bindingdb.org/jsp/dbsearch/PrimarySearch_ki.jsp?energyterm=kJ/mole&tag=r21&monomerid=50282708&enzyme=Type-1+angiotensin+II+receptor&column=ki&startPg=0&Increment=50&submit=Search

>  <Ligand HET ID in PDB>  (1) 


>  <PDB ID(s) for Ligand-Target Complex>  (1) 


>  <PubChem CID of Ligand>  (1) 
15780052

>  <PubChem SID of Ligand>  (1) 
104124382

>  <ChEBI ID of Ligand>  (1) 


>  <ChEMBL ID of Ligand>  (1) 
CHEMBL289472

>  <DrugBank ID of Ligand>  (1) 


>  <IUPHAR_GRAC ID of Ligand>  (1) 


>  <KEGG ID of Ligand>  (1) 


>  <ZINC ID of Ligand>  (1) 
ZINC03842574

>  <Number of Protein Chains in Target (bigger than 1 implies a multichain complex)>  (1) 
1

>  <BindingDB Target Chain Sequence>  (1) 
MMLNSSTEDGIKRIQDDCPKAGRHNYIFVMIPTLYSIIFVVGIFGNSLAVIVIYFYMKLKTVASVFLLNLALADLCFLLTLPLWAVYTAMEYRWPFGNYLCKIASASVSFNLYASVFLLTCLSIDRYLAIVHPMKSRLRRTMLVAKVTCIIIWLLAGLASLPAIIHRNVFFIENTNITVCAFHYESQNSTLPIGLGLTKNILGFLFPFLIILTSYTLIWKALKKAYEIQKNKPRNDDIFKIIMAIVLFFFFSWVPHQIFTFLDVLIQLGVIHDCRIADIVDTAMPITICIAYFNNCLNPLFYGFLGKKFKKYFLQLLKYIPPKAKSHSNLSTKMSTLSYRPSDNVSSSSKKPVPCFEVE

>  <PDB ID(s) of Target Chain>  (1) 
6DO1,6OS0,6OS1,6OS2

>  <UniProt (SwissProt) Recommended Name of Target Chain>  (1) 
Type-1 angiotensin II receptor

>  <UniProt (SwissProt) Entry Name of Target Chain>  (1) 
AGTR1_RABIT

>  <UniProt (SwissProt) Primary ID of Target Chain>  (1) 
P34976

>  <UniProt (SwissProt) Secondary ID(s) of Target Chain>  (1) 


>  <UniProt (SwissProt) Alternative ID(s) of Target Chain>  (1) 


>  <UniProt (TrEMBL) Submitted Name of Target Chain>  (1) 


>  <UniProt (TrEMBL) Entry Name of Target Chain>  (1) 


>  <UniProt (TrEMBL) Primary ID of Target Chain>  (1) 


>  <UniProt (TrEMBL) Secondary ID(s) of Target Chain>  (1) 


>  <UniProt (TrEMBL) Alternative ID(s) of Target Chain>  (1) 


$$$$
