
     RDKit          2D

139142  0  0  0  0  0  0  0  0999 V2000
  -10.1421    5.4078    0.0000 O   0  0  0  0  0  0  0  0  0  0  0  0
   -9.1024    6.0070    0.0000 S   0  0  0  0  0  0  0  0  0  0  0  0
   -9.1019    7.2070    0.0000 O   0  0  0  0  0  0  0  0  0  0  0  0
    3.8521   29.7305    0.0000 N   0  0  0  0  0  0  0  0  0  0  0  0
    3.8561   28.5305    0.0000 C   0  0  0  0  0  0  0  0  0  0  0  0
    5.1627   26.5849    0.0000 O   0  0  0  0  0  0  0  0  0  0  0  0
    5.1586   27.7849    0.0000 C   0  0  0  0  0  0  0  0  0  0  0  0
    2.5587   27.7761    0.0000 C   0  0  0  0  0  0  0  0  0  0  0  0
    5.1659   23.2861    0.0000 N   0  0  0  0  0  0  0  0  0  0  0  0
    5.1679   21.7853    0.0000 C   0  0  0  0  0  0  0  0  0  0  0  0
    6.2081   21.1870    0.0000 N   0  0  0  0  0  0  0  0  0  0  0  0
    3.8696   21.0323    0.0000 N   0  0  0  0  0  0  0  0  0  0  0  0
    6.4561   28.5392    0.0000 N   0  0  0  0  0  0  0  0  0  0  0  0
    7.7586   27.7936    0.0000 C   0  0  0  0  0  0  0  0  0  0  0  0
   10.0971   27.9482    0.0000 O   0  0  0  0  0  0  0  0  0  0  0  0
    9.0569   28.5465    0.0000 C   0  0  0  0  0  0  0  0  0  0  0  0
    7.7606   26.2928    0.0000 C   0  0  0  0  0  0  0  0  0  0  0  0
    6.4623   25.5398    0.0000 C   0  0  0  0  0  0  0  0  0  0  0  0
    6.4642   24.0390    0.0000 C   0  0  0  0  0  0  0  0  0  0  0  0
    9.0549   30.0474    0.0000 N   0  0  0  0  0  0  0  0  0  0  0  0
   10.3532   30.8003    0.0000 C   0  0  0  0  0  0  0  0  0  0  0  0
    9.3111   32.8994    0.0000 O   0  0  0  0  0  0  0  0  0  0  0  0
   10.3513   32.3011    0.0000 C   0  0  0  0  0  0  0  0  0  0  0  0
   11.6557   30.0547    0.0000 C   0  0  0  0  0  0  0  0  0  0  0  0
   12.6931   30.6578    0.0000 C   0  0  0  0  0  0  0  0  0  0  0  0
   11.6598   28.8547    0.0000 C   0  0  0  0  0  0  0  0  0  0  0  0
   11.6496   33.0541    0.0000 N   0  0  0  0  0  0  0  0  0  0  0  0
   11.6476   34.5549    0.0000 C   0  0  0  0  0  0  0  0  0  0  0  0
   13.9861   34.7095    0.0000 O   0  0  0  0  0  0  0  0  0  0  0  0
   12.9459   35.3078    0.0000 C   0  0  0  0  0  0  0  0  0  0  0  0
   10.3482   35.3059    0.0000 C   0  0  0  0  0  0  0  0  0  0  0  0
    9.0502   37.5592    0.0000 C   0  0  0  0  0  0  0  0  0  0  0  0
   10.3479   36.8067    0.0000 C   0  0  0  0  0  0  0  0  0  0  0  0
   11.6483   37.5544    0.0000 C   0  0  0  0  0  0  0  0  0  0  0  0
   11.6510   39.0544    0.0000 C   0  0  0  0  0  0  0  0  0  0  0  0
   10.3534   39.8068    0.0000 C   0  0  0  0  0  0  0  0  0  0  0  0
    9.0530   39.0592    0.0000 C   0  0  0  0  0  0  0  0  0  0  0  0
   10.3556   41.0068    0.0000 O   0  0  0  0  0  0  0  0  0  0  0  0
   12.9439   36.8086    0.0000 N   0  0  0  0  0  0  0  0  0  0  0  0
   14.2422   37.5616    0.0000 C   0  0  0  0  0  0  0  0  0  0  0  0
   13.2000   39.6607    0.0000 O   0  0  0  0  0  0  0  0  0  0  0  0
   14.2402   39.0624    0.0000 C   0  0  0  0  0  0  0  0  0  0  0  0
   15.5447   36.8159    0.0000 C   0  0  0  0  0  0  0  0  0  0  0  0
   15.5488   35.6160    0.0000 C   0  0  0  0  0  0  0  0  0  0  0  0
   16.8422   37.5703    0.0000 C   0  0  0  0  0  0  0  0  0  0  0  0
   17.8836   36.9741    0.0000 C   0  0  0  0  0  0  0  0  0  0  0  0
   15.5385   39.8153    0.0000 N   0  0  0  0  0  0  0  0  0  0  0  0
   15.5366   41.3162    0.0000 C   0  0  0  0  0  0  0  0  0  0  0  0
   13.1978   41.4673    0.0000 O   0  0  0  0  0  0  0  0  0  0  0  0
   14.2371   42.0671    0.0000 C   0  0  0  0  0  0  0  0  0  0  0  0
   16.8349   42.0691    0.0000 C   0  0  0  0  0  0  0  0  0  0  0  0
   14.2368   43.5680    0.0000 N   0  0  0  0  0  0  0  0  0  0  0  0
   13.0249   44.4300    0.0000 C   0  0  0  0  0  0  0  0  0  0  0  0
   11.3571   42.7870    0.0000 O   0  0  0  0  0  0  0  0  0  0  0  0
   11.6018   43.9617    0.0000 C   0  0  0  0  0  0  0  0  0  0  0  0
   13.4911   45.8558    0.0000 C   0  0  0  0  0  0  0  0  0  0  0  0
   15.4520   44.4255    0.0000 C   0  0  0  0  0  0  0  0  0  0  0  0
   14.9911   45.8530    0.0000 C   0  0  0  0  0  0  0  0  0  0  0  0
   10.4820   44.9610    0.0000 N   0  0  0  0  0  0  0  0  0  0  0  0
    9.0564   44.4919    0.0000 C   0  0  0  0  0  0  0  0  0  0  0  0
    7.6071   42.6493    0.0000 O   0  0  0  0  0  0  0  0  0  0  0  0
    8.7474   43.0232    0.0000 C   0  0  0  0  0  0  0  0  0  0  0  0
    7.9367   45.4912    0.0000 C   0  0  0  0  0  0  0  0  0  0  0  0
    5.3905   46.0191    0.0000 C   0  0  0  0  0  0  0  0  0  0  0  0
    6.5111   45.0220    0.0000 C   0  0  0  0  0  0  0  0  0  0  0  0
    6.2077   43.5529    0.0000 C   0  0  0  0  0  0  0  0  0  0  0  0
    4.7838   43.0811    0.0000 C   0  0  0  0  0  0  0  0  0  0  0  0
    3.6633   44.0783    0.0000 C   0  0  0  0  0  0  0  0  0  0  0  0
    3.9666   45.5473    0.0000 C   0  0  0  0  0  0  0  0  0  0  0  0
    9.6411   42.2223    0.0000 O   0  0  0  0  0  0  0  0  0  0  0  0
   18.1366   41.3220    0.0000 C   0  0  0  0  0  0  0  0  0  0  0  0
   19.4876   41.9438    0.0000 N   0  0  0  0  0  0  0  0  0  0  0  0
   20.4919   40.8296    0.0000 C   0  0  0  0  0  0  0  0  0  0  0  0
   19.7426   39.5301    0.0000 N   0  0  0  0  0  0  0  0  0  0  0  0
   18.2752   39.8412    0.0000 C   0  0  0  0  0  0  0  0  0  0  0  0
    1.2562   28.5217    0.0000 C   0  0  0  0  0  0  0  0  0  0  0  0
    0.2188   27.9186    0.0000 O   0  0  0  0  0  0  0  0  0  0  0  0
    1.2521   29.7217    0.0000 O   0  0  0  0  0  0  0  0  0  0  0  0
    3.8716   19.5315    0.0000 C   0  0  0  0  0  0  0  0  0  0  0  0
    2.5733   18.7786    0.0000 N   0  0  0  0  0  0  0  0  0  0  0  0
    4.9118   18.9332    0.0000 O   0  0  0  0  0  0  0  0  0  0  0  0
    2.5752   17.2778    0.0000 C   0  0  0  0  0  0  0  0  0  0  0  0
    1.2769   16.5248    0.0000 C   0  0  0  0  0  0  0  0  0  0  0  0
    1.2789   15.0240    0.0000 C   0  0  0  0  0  0  0  0  0  0  0  0
   -0.0194   14.2711    0.0000 C   0  0  0  0  0  0  0  0  0  0  0  0
   -0.0174   12.7702    0.0000 N   0  0  0  0  0  0  0  0  0  0  0  0
   -1.3157   12.0173    0.0000 C   0  0  0  0  0  0  0  0  0  0  0  0
   -1.3137   10.5165    0.0000 C   0  0  0  0  0  0  0  0  0  0  0  0
   -2.3559   12.6156    0.0000 O   0  0  0  0  0  0  0  0  0  0  0  0
   -2.6120    9.7635    0.0000 C   0  0  0  0  0  0  0  0  0  0  0  0
   -2.6101    8.2627    0.0000 C   0  0  0  0  0  0  0  0  0  0  0  0
   -3.9084    7.5098    0.0000 C   0  0  0  0  0  0  0  0  0  0  0  0
   -3.9064    6.0090    0.0000 C   0  0  0  0  0  0  0  0  0  0  0  0
   -5.2047    5.2560    0.0000 N   0  0  0  0  0  0  0  0  0  0  0  0
   -5.2049    3.7560    0.0000 C   0  0  0  0  0  0  0  0  0  0  0  0
   -6.5041    3.0062    0.0000 C   0  0  0  0  0  0  0  0  0  0  0  0
   -7.8030    3.7564    0.0000 C   0  0  0  0  0  0  0  0  0  0  0  0
   -7.8028    5.2564    0.0000 C   0  0  0  0  0  0  0  0  0  0  0  0
   -6.5036    6.0062    0.0000 C   0  0  0  0  0  0  0  0  0  0  0  0
   -3.9067    3.0027    0.0000 C   0  0  0  0  0  0  0  0  0  0  0  0
   -3.9091    1.5019    0.0000 C   0  0  0  0  0  0  0  0  0  0  0  0
   -2.6111    0.7486    0.0000 C   0  0  0  0  0  0  0  0  0  0  0  0
   -2.6111   -0.7486    0.0000 C   0  0  0  0  0  0  0  0  0  0  0  0
   -1.2964   -1.4973    0.0000 O   0  0  0  0  0  0  0  0  0  0  0  0
   -1.2964    1.4973    0.0000 C   0  0  0  0  0  0  0  0  0  0  0  0
   -3.6486   -1.3517    0.0000 O   0  0  0  0  0  0  0  0  0  0  0  0
    0.0000    0.7486    0.0000 C   0  0  0  0  0  0  0  0  0  0  0  0
    0.0000   -0.7486    0.0000 C   0  0  0  0  0  0  0  0  0  0  0  0
    1.2964   -1.4973    0.0000 C   0  0  0  0  0  0  0  0  0  0  0  0
    2.5929   -0.7486    0.0000 C   0  0  0  0  0  0  0  0  0  0  0  0
    2.5929    0.7486    0.0000 C   0  0  0  0  0  0  0  0  0  0  0  0
    1.2964    1.4973    0.0000 C   0  0  0  0  0  0  0  0  0  0  0  0
    3.8942   -1.4964    0.0000 N   0  0  0  0  0  0  0  0  0  0  0  0
    5.1929   -0.7441    0.0000 C   0  0  0  0  0  0  0  0  0  0  0  0
    6.2333   -1.3420    0.0000 C   0  0  0  0  0  0  0  0  0  0  0  0
    3.8999   -2.9972    0.0000 C   0  0  0  0  0  0  0  0  0  0  0  0
    4.9410   -3.5939    0.0000 C   0  0  0  0  0  0  0  0  0  0  0  0
  -10.1413    6.6077    0.0000 O   0  0  0  0  0  0  0  0  0  0  0  0
   23.2447   20.7628    0.0000 C   0  0  0  0  0  0  0  0  0  0  0  0
   21.9447   21.5128    0.0000 C   0  0  0  0  0  0  0  0  0  0  0  0
   20.9053   20.9131    0.0000 F   0  0  0  0  0  0  0  0  0  0  0  0
   21.9447   22.7128    0.0000 F   0  0  0  0  0  0  0  0  0  0  0  0
   20.9055   22.1130    0.0000 F   0  0  0  0  0  0  0  0  0  0  0  0
   23.2447   19.5628    0.0000 O   0  0  0  0  0  0  0  0  0  0  0  0
   24.2841   21.3625    0.0000 O   0  0  0  0  0  0  0  0  0  0  0  0
   29.6446   20.7628    0.0000 C   0  0  0  0  0  0  0  0  0  0  0  0
   28.3447   21.5128    0.0000 C   0  0  0  0  0  0  0  0  0  0  0  0
   27.3052   20.9131    0.0000 F   0  0  0  0  0  0  0  0  0  0  0  0
   28.3447   22.7128    0.0000 F   0  0  0  0  0  0  0  0  0  0  0  0
   27.3055   22.1130    0.0000 F   0  0  0  0  0  0  0  0  0  0  0  0
   29.6446   19.5628    0.0000 O   0  0  0  0  0  0  0  0  0  0  0  0
   30.6841   21.3625    0.0000 O   0  0  0  0  0  0  0  0  0  0  0  0
   36.0446   20.7628    0.0000 C   0  0  0  0  0  0  0  0  0  0  0  0
   34.7446   21.5128    0.0000 C   0  0  0  0  0  0  0  0  0  0  0  0
   33.7052   20.9131    0.0000 F   0  0  0  0  0  0  0  0  0  0  0  0
   34.7446   22.7128    0.0000 F   0  0  0  0  0  0  0  0  0  0  0  0
   33.7055   22.1130    0.0000 F   0  0  0  0  0  0  0  0  0  0  0  0
   36.0446   19.5628    0.0000 O   0  0  0  0  0  0  0  0  0  0  0  0
   37.0840   21.3625    0.0000 O   0  0  0  0  0  0  0  0  0  0  0  0
  2  1  2  0
  3  2  2  0
  7 13  1  0
 16 20  1  0
 23 27  1  0
 30 39  1  0
 42 47  1  0
 50 52  1  0
 55 59  1  0
 62 70  1  0
  5  4  1  6
  5  7  1  0
  7  6  2  0
  5  8  1  0
  9 10  1  0
 10 11  1  0
 10 12  2  0
 14 13  1  0
 14 16  1  0
 16 15  2  0
 14 17  1  6
 17 18  1  0
 18 19  1  0
 19  9  1  0
 21 20  1  6
 21 23  1  0
 23 22  2  0
 21 24  1  0
 24 25  1  0
 24 26  1  0
 28 27  1  0
 28 30  1  0
 30 29  2  0
 28 31  1  1
 31 33  1  0
 32 33  2  0
 33 34  1  0
 34 35  2  0
 35 36  1  0
 36 37  2  0
 37 32  1  0
 36 38  1  0
 40 39  1  6
 40 42  1  0
 42 41  2  0
 40 43  1  0
 43 44  1  6
 43 45  1  0
 45 46  1  0
 48 47  1  0
 48 50  1  0
 50 49  2  0
 48 51  1  6
 52 53  1  0
 53 55  1  6
 55 54  2  0
 53 56  1  0
 57 58  1  0
 58 56  1  0
 57 52  1  0
 59 60  1  0
 60 62  1  0
 62 61  2  0
 60 63  1  6
 63 65  1  0
 64 65  2  0
 65 66  1  0
 66 67  2  0
 67 68  1  0
 68 69  2  0
 69 64  1  0
 51 71  1  0
 71 72  1  0
 72 73  1  0
 73 74  2  0
 74 75  1  0
 75 71  2  0
  8 76  1  0
 76 77  2  0
 76 78  1  0
 12 79  1  0
 79 80  1  0
 79 81  2  0
 80 82  1  0
 82 83  1  0
 83 84  1  0
 84 85  1  0
 85 86  1  0
 86 87  1  0
 87 88  1  0
 87 89  2  0
 88 90  1  0
 90 91  1  0
 91 92  1  0
 92 93  1  0
 93 94  1  0
 94 95  1  0
 95 96  2  0
 96 97  1  0
 97 98  2  0
 98 99  1  0
 99 94  2  0
 95100  1  0
100101  2  0
101102  1  0
102103  1  0
102105  2  0
103104  1  0
104108  1  0
107105  1  0
103106  2  0
107108  2  0
108109  1  0
109110  2  0
110111  1  0
111112  2  0
112107  1  0
110113  1  0
113114  1  0
114115  1  0
113116  1  0
116117  1  0
 98  2  1  0
  2118  1  0
119120  1  0
120121  1  0
120122  1  0
120123  1  0
119124  1  0
119125  2  0
126127  1  0
127128  1  0
127129  1  0
127130  1  0
126131  1  0
126132  2  0
133134  1  0
134135  1  0
134136  1  0
134137  1  0
133138  1  0
133139  2  0
M  CHG  2  94   1 118  -1
M  END
>  <From>  (1) 
www.bindingDB.org

>  <BindingDB Reactant_set_id>  (1) 
50487642

>  <Ligand InChI>  (1) 
InChI=1S/C81H109N17O19S.3C2HF3O2/c1-7-50(6)70(76(108)91-63(43-55-46-84-48-88-55)77(109)98-39-19-23-65(98)74(106)92-64(78(110)111)41-51-20-12-10-13-21-51)94-73(105)62(40-52-25-32-58(99)33-26-52)90-75(107)69(49(4)5)93-72(104)61(89-71(103)60(82)45-68(101)102)22-18-37-86-80(83)95-81(113)87-36-16-15-35-85-67(100)24-14-11-17-38-97-47-59(118(114,115)116)34-31-56(97)29-28-54-42-53-27-30-57(96(8-2)9-3)44-66(53)117-79(54)112;3*3-2(4,5)1(6)7/h10,12-13,20-21,25-34,42,44,46-50,60-65,69-70H,7-9,11,14-19,22-24,35-41,43,45,82H2,1-6H3,(H15-,83,84,85,86,87,88,89,90,91,92,93,94,95,99,100,101,102,103,104,105,106,107,108,110,111,113,114,115,116);3*(H,6,7)/t50-,60-,61-,62-,63-,64-,65-,69-,70-;;;/m0.../s1

>  <Ligand InChI Key>  (1) 
JLKMNUQSDIVHOA-SVXUCYJOSA-N

>  <BindingDB MonomerID>  (1) 
50159157

>  <BindingDB Ligand Name>  (1) 
CHEMBL3785563

>  <Target Name>  (1) 
Type-1 angiotensin II receptor

>  <Target Source Organism According to Curator or DataSource>  (1) 
Homo sapiens

>  <Ki (nM)>  (1) 


>  <IC50 (nM)>  (1) 
 28

>  <Kd (nM)>  (1) 


>  <EC50 (nM)>  (1) 


>  <kon (M-1-s-1)>  (1) 


>  <koff (s-1)>  (1) 


>  <pH>  (1) 


>  <Temp C>  (1) 


>  <Curation/DataSource>  (1) 
ChEMBL

>  <Article DOI>  (1) 
10.1021/acs.jmedchem.5b01495

>  <BindingDB Entry DOI>  (1) 
10.7270/Q2V69MGK

>  <PMID>  (1) 
26824643

>  <PubChem AID>  (1) 


>  <Patent Number>  (1) 


>  <Authors>  (1) 
Keller, M; Kuhn, KK; Einsiedel, J; Hübner, H; Biselli, S; Mollereau, C; Wifling, D; Svobodová, J; Bernhardt, G; Cabrele, C; Vanderheyden, PM; Gmeiner, P; Buschauer, A

>  <Institution>  (1) 
University of Regensburg

>  <Link to Ligand in BindingDB>  (1) 
http://www.bindingdb.org/bind/chemsearch/marvin/MolStructure.jsp?monomerid=50159157

>  <Link to Ligand-Target Pair in BindingDB>  (1) 
http://www.bindingdb.org/jsp/dbsearch/PrimarySearch_ki.jsp?energyterm=kJ/mole&tag=r21&monomerid=50159157&enzyme=Type-1+angiotensin+II+receptor&column=ki&startPg=0&Increment=50&submit=Search

>  <Ligand HET ID in PDB>  (1) 


>  <PDB ID(s) for Ligand-Target Complex>  (1) 


>  <PubChem CID of Ligand>  (1) 
127031847

>  <PubChem SID of Ligand>  (1) 
340134452

>  <ChEBI ID of Ligand>  (1) 


>  <ChEMBL ID of Ligand>  (1) 
CHEMBL3785563

>  <DrugBank ID of Ligand>  (1) 


>  <IUPHAR_GRAC ID of Ligand>  (1) 


>  <KEGG ID of Ligand>  (1) 


>  <ZINC ID of Ligand>  (1) 


>  <Number of Protein Chains in Target (bigger than 1 implies a multichain complex)>  (1) 
1

>  <BindingDB Target Chain Sequence>  (1) 
MILNSSTEDGIKRIQDDCPKAGRHNYIFVMIPTLYSIIFVVGIFGNSLVVIVIYFYMKLKTVASVFLLNLALADLCFLLTLPLWAVYTAMEYRWPFGNYLCKIASASVSFNLYASVFLLTCLSIDRYLAIVHPMKSRLRRTMLVAKVTCIIIWLLAGLASLPAIIHRNVFFIENTNITVCAFHYESQNSTLPIGLGLTKNILGFLFPFLIILTSYTLIWKALKKAYEIQKNKPRNDDIFKIIMAIVLFFFFSWIPHQIFTFLDVLIQLGIIRDCRIADIVDTAMPITICIAYFNNCLNPLFYGFLGKKFKRYFLQLLKYIPPKAKSHSNLSTKMSTLSYRPSDNVSSSTKKPAPCFEVE

>  <PDB ID(s) of Target Chain>  (1) 
6DO1,6OS0,6OS1,6OS2

>  <UniProt (SwissProt) Recommended Name of Target Chain>  (1) 
Type-1 angiotensin II receptor

>  <UniProt (SwissProt) Entry Name of Target Chain>  (1) 
AGTR1_HUMAN

>  <UniProt (SwissProt) Primary ID of Target Chain>  (1) 
P30556

>  <UniProt (SwissProt) Secondary ID(s) of Target Chain>  (1) 
Q13725 Q8TBK4

>  <UniProt (SwissProt) Alternative ID(s) of Target Chain>  (1) 


>  <UniProt (TrEMBL) Submitted Name of Target Chain>  (1) 


>  <UniProt (TrEMBL) Entry Name of Target Chain>  (1) 


>  <UniProt (TrEMBL) Primary ID of Target Chain>  (1) 


>  <UniProt (TrEMBL) Secondary ID(s) of Target Chain>  (1) 


>  <UniProt (TrEMBL) Alternative ID(s) of Target Chain>  (1) 


$$$$
