
     RDKit          2D

 43 48  0  0  0  0  0  0  0  0999 V2000
    5.9361    2.0250    0.0000 C   0  0  0  0  0  0  0  0  0  0  0  0
    5.9349    1.1977    0.0000 C   0  0  0  0  0  0  0  0  0  0  0  0
    6.6497    0.7848    0.0000 C   0  0  0  0  0  0  0  0  0  0  0  0
    7.3662    1.1981    0.0000 C   0  0  0  0  0  0  0  0  0  0  0  0
    7.3633    2.0287    0.0000 C   0  0  0  0  0  0  0  0  0  0  0  0
    6.6479    2.4378    0.0000 C   0  0  0  0  0  0  0  0  0  0  0  0
    8.0813    0.7868    0.0000 C   0  0  0  0  0  0  0  0  0  0  0  0
    8.7951    1.2004    0.0000 N   0  0  0  0  0  0  0  0  0  0  0  0
    9.5102    0.7890    0.0000 C   0  0  0  0  0  0  0  0  0  0  0  0
   10.2240    1.2026    0.0000 C   0  0  0  0  0  0  0  0  0  0  0  0
    9.5115   -0.0360    0.0000 O   0  0  0  0  0  0  0  0  0  0  0  0
   10.9379    0.7899    0.0000 C   0  0  0  0  0  0  0  0  0  0  0  0
   10.9302    2.4399    0.0000 C   0  0  0  0  0  0  0  0  0  0  0  0
   10.2198    2.0246    0.0000 C   0  0  0  0  0  0  0  0  0  0  0  0
   10.9260    3.2649    0.0000 C   0  0  0  0  0  0  0  0  0  0  0  0
   11.6503    2.0287    0.0000 C   0  0  0  0  0  0  0  0  0  0  0  0
   11.6526    1.2042    0.0000 C   0  0  0  0  0  0  0  0  0  0  0  0
   12.4367    0.9516    0.0000 N   0  0  0  0  0  0  0  0  0  0  0  0
   12.9204    1.6200    0.0000 C   0  0  0  0  0  0  0  0  0  0  0  0
   12.4338    2.2856    0.0000 N   0  0  0  0  0  0  0  0  0  0  0  0
   13.7454    1.6223    0.0000 C   0  0  0  0  0  0  0  0  0  0  0  0
   14.1559    2.3379    0.0000 C   0  0  0  0  0  0  0  0  0  0  0  0
   14.9809    2.3402    0.0000 C   0  0  0  0  0  0  0  0  0  0  0  0
   12.4386    0.1266    0.0000 C   0  0  0  0  0  0  0  0  0  0  0  0
   13.1540   -0.2842    0.0000 C   0  0  0  0  0  0  0  0  0  0  0  0
   13.1511   -1.1086    0.0000 C   0  0  0  0  0  0  0  0  0  0  0  0
   13.8657   -1.5193    0.0000 C   0  0  0  0  0  0  0  0  0  0  0  0
   14.5802   -1.1052    0.0000 C   0  0  0  0  0  0  0  0  0  0  0  0
   14.5756   -0.2759    0.0000 C   0  0  0  0  0  0  0  0  0  0  0  0
   13.8605    0.1312    0.0000 C   0  0  0  0  0  0  0  0  0  0  0  0
   15.2944   -1.5125    0.0000 C   0  0  0  0  0  0  0  0  0  0  0  0
   15.2960   -2.3386    0.0000 C   0  0  0  0  0  0  0  0  0  0  0  0
   16.0112   -2.7484    0.0000 C   0  0  0  0  0  0  0  0  0  0  0  0
   16.7251   -2.3333    0.0000 C   0  0  0  0  0  0  0  0  0  0  0  0
   16.7195   -1.5040    0.0000 C   0  0  0  0  0  0  0  0  0  0  0  0
   16.0038   -1.0979    0.0000 C   0  0  0  0  0  0  0  0  0  0  0  0
   15.9985   -0.2729    0.0000 C   0  0  0  0  0  0  0  0  0  0  0  0
   16.6591    0.2163    0.0000 N   0  0  0  0  0  0  0  0  0  0  0  0
   16.3991    0.9993    0.0000 N   0  0  0  0  0  0  0  0  0  0  0  0
   15.5741    0.9940    0.0000 N   0  0  0  0  0  0  0  0  0  0  0  0
   15.3243    0.2078    0.0000 N   0  0  0  0  0  0  0  0  0  0  0  0
    6.6495   -0.0402    0.0000 O   0  0  0  0  0  0  0  0  0  0  0  0
    7.3639   -0.4529    0.0000 C   0  0  0  0  0  0  0  0  0  0  0  0
  9 10  1  0
 19 21  1  0
  2  3  2  0
 21 22  1  0
  9 11  2  0
 22 23  1  0
  5  6  1  0
 18 24  1  0
 10 12  2  0
 24 25  1  0
 12 17  1  0
 25 26  2  0
  6  1  2  0
 26 27  1  0
 16 13  1  0
 27 28  2  0
  1  2  1  0
 28 29  1  0
 13 14  2  0
 29 30  2  0
 30 25  1  0
 14 10  1  0
  4  7  1  0
 31 32  2  0
 13 15  1  0
 32 33  1  0
 16 17  2  0
 33 34  2  0
  3  4  1  0
 34 35  1  0
  7  8  1  0
 35 36  2  0
 36 31  1  0
 28 31  1  0
 36 37  1  0
 37 38  1  0
  8  9  1  0
  4  5  2  0
 17 18  1  0
 18 19  1  0
 38 39  1  0
 39 40  2  0
 40 41  1  0
 41 37  2  0
 19 20  2  0
  3 42  1  0
 20 16  1  0
 42 43  1  0
M  END
>  <From>  (1) 
www.bindingDB.org

>  <BindingDB Reactant_set_id>  (1) 
50947173

>  <Ligand InChI>  (1) 
InChI=1S/C34H33N7O2/c1-4-9-31-36-32-22(2)18-26(34(42)35-20-25-10-5-8-13-30(25)43-3)19-29(32)41(31)21-23-14-16-24(17-15-23)27-11-6-7-12-28(27)33-37-39-40-38-33/h5-8,10-19H,4,9,20-21H2,1-3H3,(H,35,42)(H,37,38,39,40)

>  <Ligand InChI Key>  (1) 
UWRRERFHPVVHIY-UHFFFAOYSA-N

>  <BindingDB MonomerID>  (1) 
50388732

>  <BindingDB Ligand Name>  (1) 
CHEMBL2058855

>  <Target Name>  (1) 
Type-1 angiotensin II receptor

>  <Target Source Organism According to Curator or DataSource>  (1) 
Homo sapiens

>  <Ki (nM)>  (1) 


>  <IC50 (nM)>  (1) 
 19.7

>  <Kd (nM)>  (1) 


>  <EC50 (nM)>  (1) 


>  <kon (M-1-s-1)>  (1) 


>  <koff (s-1)>  (1) 


>  <pH>  (1) 


>  <Temp C>  (1) 


>  <Curation/DataSource>  (1) 
ChEMBL

>  <Article DOI>  (1) 
10.1016/j.bmc.2012.05.056

>  <BindingDB Entry DOI>  (1) 
10.7270/Q2GT5P7J

>  <PMID>  (1) 
22727371

>  <PubChem AID>  (1) 


>  <Patent Number>  (1) 


>  <Authors>  (1) 
Zhang, J; Wang, JL; Zhou, ZM; Li, ZH; Xue, WZ; Xu, D; Hao, LP; Han, XF; Fei, F; Liu, T; Liang, AH

>  <Institution>  (1) 
School of Chemical Engineering & the Environment

>  <Link to Ligand in BindingDB>  (1) 
http://www.bindingdb.org/bind/chemsearch/marvin/MolStructure.jsp?monomerid=50388732

>  <Link to Ligand-Target Pair in BindingDB>  (1) 
http://www.bindingdb.org/jsp/dbsearch/PrimarySearch_ki.jsp?energyterm=kJ/mole&tag=r21&monomerid=50388732&enzyme=Type-1+angiotensin+II+receptor&column=ki&startPg=0&Increment=50&submit=Search

>  <Ligand HET ID in PDB>  (1) 


>  <PDB ID(s) for Ligand-Target Complex>  (1) 


>  <PubChem CID of Ligand>  (1) 
70686409

>  <PubChem SID of Ligand>  (1) 
160867815

>  <ChEBI ID of Ligand>  (1) 


>  <ChEMBL ID of Ligand>  (1) 
CHEMBL2058855

>  <DrugBank ID of Ligand>  (1) 


>  <IUPHAR_GRAC ID of Ligand>  (1) 


>  <KEGG ID of Ligand>  (1) 


>  <ZINC ID of Ligand>  (1) 
ZINC72316991

>  <Number of Protein Chains in Target (bigger than 1 implies a multichain complex)>  (1) 
1

>  <BindingDB Target Chain Sequence>  (1) 
MILNSSTEDGIKRIQDDCPKAGRHNYIFVMIPTLYSIIFVVGIFGNSLVVIVIYFYMKLKTVASVFLLNLALADLCFLLTLPLWAVYTAMEYRWPFGNYLCKIASASVSFNLYASVFLLTCLSIDRYLAIVHPMKSRLRRTMLVAKVTCIIIWLLAGLASLPAIIHRNVFFIENTNITVCAFHYESQNSTLPIGLGLTKNILGFLFPFLIILTSYTLIWKALKKAYEIQKNKPRNDDIFKIIMAIVLFFFFSWIPHQIFTFLDVLIQLGIIRDCRIADIVDTAMPITICIAYFNNCLNPLFYGFLGKKFKRYFLQLLKYIPPKAKSHSNLSTKMSTLSYRPSDNVSSSTKKPAPCFEVE

>  <PDB ID(s) of Target Chain>  (1) 
6DO1,6OS0,6OS1,6OS2

>  <UniProt (SwissProt) Recommended Name of Target Chain>  (1) 
Type-1 angiotensin II receptor

>  <UniProt (SwissProt) Entry Name of Target Chain>  (1) 
AGTR1_HUMAN

>  <UniProt (SwissProt) Primary ID of Target Chain>  (1) 
P30556

>  <UniProt (SwissProt) Secondary ID(s) of Target Chain>  (1) 
Q13725 Q8TBK4

>  <UniProt (SwissProt) Alternative ID(s) of Target Chain>  (1) 


>  <UniProt (TrEMBL) Submitted Name of Target Chain>  (1) 


>  <UniProt (TrEMBL) Entry Name of Target Chain>  (1) 


>  <UniProt (TrEMBL) Primary ID of Target Chain>  (1) 


>  <UniProt (TrEMBL) Secondary ID(s) of Target Chain>  (1) 


>  <UniProt (TrEMBL) Alternative ID(s) of Target Chain>  (1) 


$$$$
