
     RDKit          2D

 29 32  0  0  0  0  0  0  0  0999 V2000
   -2.6583    0.8333    0.0000 N   0  0  0  0  0  0  0  0  0  0  0  0
   -1.9083    0.4958    0.0000 C   0  0  0  0  0  0  0  0  0  0  0  0
   -1.7625    1.8250    0.0000 N   0  0  0  0  0  0  0  0  0  0  0  0
   -2.5708    1.6500    0.0000 C   0  0  0  0  0  0  0  0  0  0  0  0
   -1.3500    1.1125    0.0000 C   0  0  0  0  0  0  0  0  0  0  0  0
   -1.6458   -0.2875    0.0000 N   0  0  0  0  0  0  0  0  0  0  0  0
   -2.6500   -3.2917    0.0000 C   0  0  0  0  0  0  0  0  0  0  0  0
   -0.5458    0.9458    0.0000 C   0  0  0  0  0  0  0  0  0  0  0  0
   -3.3625   -2.8792    0.0000 C   0  0  0  0  0  0  0  0  0  0  0  0
   -1.9375   -2.8792    0.0000 C   0  0  0  0  0  0  0  0  0  0  0  0
   -3.3708    0.4208    0.0000 C   0  0  0  0  0  0  0  0  0  0  0  0
   -3.3708   -2.0542    0.0000 C   0  0  0  0  0  0  0  0  0  0  0  0
   -0.8375   -0.4542    0.0000 C   0  0  0  0  0  0  0  0  0  0  0  0
   -0.2875    0.1625    0.0000 C   0  0  0  0  0  0  0  0  0  0  0  0
   -1.9458   -2.0542    0.0000 O   0  0  0  0  0  0  0  0  0  0  0  0
   -4.0833   -1.6417    0.0000 C   0  0  0  0  0  0  0  0  0  0  0  0
   -2.6500   -1.6417    0.0000 C   0  0  0  0  0  0  0  0  0  0  0  0
   -3.3708   -0.4042    0.0000 C   0  0  0  0  0  0  0  0  0  0  0  0
   -1.2208   -3.2875    0.0000 O   0  0  0  0  0  0  0  0  0  0  0  0
   -3.1833    2.2083    0.0000 C   0  0  0  0  0  0  0  0  0  0  0  0
   -2.6500   -0.8167    0.0000 C   0  0  0  0  0  0  0  0  0  0  0  0
   -4.0833   -0.8167    0.0000 C   0  0  0  0  0  0  0  0  0  0  0  0
   -2.6500   -4.1125    0.0000 C   0  0  0  0  0  0  0  0  0  0  0  0
   -4.0833   -3.2917    0.0000 C   0  0  0  0  0  0  0  0  0  0  0  0
    0.0042    1.5583    0.0000 C   0  0  0  0  0  0  0  0  0  0  0  0
   -0.5833   -1.2417    0.0000 C   0  0  0  0  0  0  0  0  0  0  0  0
   -3.0125    3.0083    0.0000 C   0  0  0  0  0  0  0  0  0  0  0  0
   -3.3708   -4.5292    0.0000 C   0  0  0  0  0  0  0  0  0  0  0  0
   -4.0833   -4.1167    0.0000 C   0  0  0  0  0  0  0  0  0  0  0  0
  2  1  1  0
  3  4  2  0
  4  1  1  0
  5  2  2  0
  6  2  1  0
  7  9  2  0
  8  5  1  0
  9 12  1  0
 10  7  1  0
 11  1  1  0
 12 16  2  0
 13  6  2  0
 14 13  1  0
 15 10  2  0
 16 22  1  0
 17 21  2  0
 18 11  1  0
 19 10  1  0
 20  4  1  0
 21 18  1  0
 22 18  2  0
 23  7  1  0
 24  9  1  0
 25  8  1  0
 26 13  1  0
 27 20  1  0
 28 29  1  0
 29 24  2  0
  5  3  1  0
 12 17  1  0
 14  8  2  0
 23 28  2  0
M  END
>  <From>  (1) 
www.bindingDB.org

>  <BindingDB Reactant_set_id>  (1) 
50267979

>  <Ligand InChI>  (1) 
InChI=1S/C24H23N3O2/c1-4-21-26-22-15(2)13-16(3)25-23(22)27(21)14-17-9-11-18(12-10-17)19-7-5-6-8-20(19)24(28)29/h5-13H,4,14H2,1-3H3,(H,28,29)

>  <Ligand InChI Key>  (1) 
CRKLJDSSQSUXJQ-UHFFFAOYSA-N

>  <BindingDB MonomerID>  (1) 
50145987

>  <BindingDB Ligand Name>  (1) 
4'-(2-Ethyl-5,7-dimethyl-imidazo[4,5-b]pyridin-3-ylmethyl)-biphenyl-2-carboxylic acid::CHEMBL87842

>  <Target Name>  (1) 
Type-1 angiotensin II receptor B

>  <Target Source Organism According to Curator or DataSource>  (1) 
Rattus

>  <Ki (nM)>  (1) 


>  <IC50 (nM)>  (1) 
 10

>  <Kd (nM)>  (1) 


>  <EC50 (nM)>  (1) 


>  <kon (M-1-s-1)>  (1) 


>  <koff (s-1)>  (1) 


>  <pH>  (1) 


>  <Temp C>  (1) 


>  <Curation/DataSource>  (1) 
ChEMBL

>  <Article DOI>  (1) 
10.1021/jm031100t

>  <BindingDB Entry DOI>  (1) 
10.7270/Q25X28DX

>  <PMID>  (1) 
15115399

>  <PubChem AID>  (1) 


>  <Patent Number>  (1) 


>  <Authors>  (1) 
Cappelli, A; Pericot Mohr Gl, G; Gallelli, A; Rizzo, M; Anzini, M; Vomero, S; Mennuni, L; Ferrari, F; Makovec, F; Menziani, MC; De Benedetti, PG; Giorgi, G

>  <Institution>  (1) 
Universit&#224; di Siena

>  <Link to Ligand in BindingDB>  (1) 
http://www.bindingdb.org/bind/chemsearch/marvin/MolStructure.jsp?monomerid=50145987

>  <Link to Ligand-Target Pair in BindingDB>  (1) 
http://www.bindingdb.org/jsp/dbsearch/PrimarySearch_ki.jsp?energyterm=kJ/mole&tag=r21&monomerid=50145987&enzyme=Type-1+angiotensin+II+receptor+B&column=ki&startPg=0&Increment=50&submit=Search

>  <Ligand HET ID in PDB>  (1) 


>  <PDB ID(s) for Ligand-Target Complex>  (1) 


>  <PubChem CID of Ligand>  (1) 
19008869

>  <PubChem SID of Ligand>  (1) 
104034673

>  <ChEBI ID of Ligand>  (1) 


>  <ChEMBL ID of Ligand>  (1) 
CHEMBL87842

>  <DrugBank ID of Ligand>  (1) 


>  <IUPHAR_GRAC ID of Ligand>  (1) 


>  <KEGG ID of Ligand>  (1) 


>  <ZINC ID of Ligand>  (1) 
ZINC13560844

>  <Number of Protein Chains in Target (bigger than 1 implies a multichain complex)>  (1) 
1

>  <BindingDB Target Chain Sequence>  (1) 
MTLNSSTEDGIKRIQDDCPKAGRHNYIFVMIPTLYSIIFVVGIFGNSLVVIVIYFYMKLKTVASVFLLNLALADLCFLLTLPLWAVYTAMEYRWPFGNHLCKIASASVSFNLYASVFLLTCLSIDRYLAIVHPMKSRLRRTMLVAKVTCIIIWLMAGLASLPAVIYRNVYFIENTNITVCAFHYESQNSTLPIGLGLTKNILGFVFPFLIILTSYTLIWKALKKAYKIQKNTPRNDDIFRIIMAIVLFFFFSWVPHQIFTFLDVLIQLGIIRDCEIADIVDTAMPITICIAYFNNCLNPLFYGFLGKKFKKYFLQLLKYIPPTAKSHAGLSTKMSTLSYRPSDNMSSSAKKSASFFEVE

>  <PDB ID(s) of Target Chain>  (1) 


>  <UniProt (SwissProt) Recommended Name of Target Chain>  (1) 
Type-1 angiotensin II receptor B

>  <UniProt (SwissProt) Entry Name of Target Chain>  (1) 
AGTRB_RAT

>  <UniProt (SwissProt) Primary ID of Target Chain>  (1) 
P29089

>  <UniProt (SwissProt) Secondary ID(s) of Target Chain>  (1) 


>  <UniProt (SwissProt) Alternative ID(s) of Target Chain>  (1) 


>  <UniProt (TrEMBL) Submitted Name of Target Chain>  (1) 


>  <UniProt (TrEMBL) Entry Name of Target Chain>  (1) 


>  <UniProt (TrEMBL) Primary ID of Target Chain>  (1) 


>  <UniProt (TrEMBL) Secondary ID(s) of Target Chain>  (1) 


>  <UniProt (TrEMBL) Alternative ID(s) of Target Chain>  (1) 


$$$$
