
     RDKit          2D

 32 36  0  0  0  0  0  0  0  0999 V2000
    9.1300    0.0779    0.0000 C   0  0  0  0  0  0  0  0  0  0  0  0
    5.3762    0.5866    0.0000 N   0  0  0  0  0  0  0  0  0  0  0  0
    5.3762    1.9250    0.0000 N   0  0  0  0  0  0  0  0  0  0  0  0
    4.5925    0.8479    0.0000 C   0  0  0  0  0  0  0  0  0  0  0  0
    8.4609    0.5637    0.0000 S   0  0  0  0  0  0  0  0  0  0  0  0
    5.8621    1.2604    0.0000 C   0  0  0  0  0  0  0  0  0  0  0  0
    8.8734   -0.7059    0.0000 S   0  0  0  0  0  0  0  0  0  0  0  0
    4.5925    1.6729    0.0000 C   0  0  0  0  0  0  0  0  0  0  0  0
    7.7871    0.0779    0.0000 C   0  0  0  0  0  0  0  0  0  0  0  0
    9.3409    0.8754    0.0000 C   0  0  0  0  0  0  0  0  0  0  0  0
    8.0484   -0.7059    0.0000 C   0  0  0  0  0  0  0  0  0  0  0  0
    5.6284   -0.1971    0.0000 C   0  0  0  0  0  0  0  0  0  0  0  0
    3.8775    0.4263    0.0000 N   0  0  0  0  0  0  0  0  0  0  0  0
    9.9550    0.0779    0.0000 C   0  0  0  0  0  0  0  0  0  0  0  0
    6.9896    0.2429    0.0000 C   0  0  0  0  0  0  0  0  0  0  0  0
    3.8775    2.0854    0.0000 C   0  0  0  0  0  0  0  0  0  0  0  0
    6.4396   -0.3713    0.0000 C   0  0  0  0  0  0  0  0  0  0  0  0
    8.7496    1.4666    0.0000 O   0  0  0  0  0  0  0  0  0  0  0  0
    7.4984   -1.3246    0.0000 C   0  0  0  0  0  0  0  0  0  0  0  0
   10.0559    1.2925    0.0000 O   0  0  0  0  0  0  0  0  0  0  0  0
    6.6871   -1.1550    0.0000 C   0  0  0  0  0  0  0  0  0  0  0  0
    6.6871    1.2604    0.0000 C   0  0  0  0  0  0  0  0  0  0  0  0
    3.1625    0.8387    0.0000 C   0  0  0  0  0  0  0  0  0  0  0  0
    3.1625    1.6637    0.0000 C   0  0  0  0  0  0  0  0  0  0  0  0
   10.3584    0.7929    0.0000 C   0  0  0  0  0  0  0  0  0  0  0  0
   10.3584   -0.6371    0.0000 C   0  0  0  0  0  0  0  0  0  0  0  0
    3.8684    2.9104    0.0000 C   0  0  0  0  0  0  0  0  0  0  0  0
    7.0996    1.9754    0.0000 C   0  0  0  0  0  0  0  0  0  0  0  0
    7.9246    1.9754    0.0000 C   0  0  0  0  0  0  0  0  0  0  0  0
   11.1834   -0.6371    0.0000 C   0  0  0  0  0  0  0  0  0  0  0  0
   11.1834    0.7929    0.0000 C   0  0  0  0  0  0  0  0  0  0  0  0
   11.5959    0.0779    0.0000 C   0  0  0  0  0  0  0  0  0  0  0  0
  2 12  1  0
  3  6  2  0
  4  2  1  0
  5  1  1  0
  6  2  1  0
  7  1  1  0
  8  4  2  0
  9  5  1  0
 10  1  1  0
 11  7  1  0
 12 17  1  0
 13  4  1  0
 14  1  1  0
 15  9  2  0
 16  8  1  0
 17 15  1  0
 18 10  2  0
 19 11  2  0
 20 10  1  0
 21 19  1  0
 22  6  1  0
 23 13  2  0
 24 23  1  0
 25 14  2  0
 26 14  1  0
 27 16  1  0
 28 22  1  0
 29 28  1  0
 30 26  2  0
 31 25  1  0
 32 30  1  0
  9 11  1  0
 31 32  2  0
 17 21  2  0
  3  8  1  0
 16 24  2  0
M  END
>  <From>  (1) 
www.bindingDB.org

>  <BindingDB Reactant_set_id>  (1) 
50003403

>  <Ligand InChI>  (1) 
InChI=1S/C25H23N3O2S2/c1-3-7-21-27-22-16(2)12-13-26-23(22)28(21)15-17-10-11-19-20(14-17)32-25(31-19,24(29)30)18-8-5-4-6-9-18/h4-6,8-14H,3,7,15H2,1-2H3,(H,29,30)

>  <Ligand InChI Key>  (1) 
DUBTZNCRYQSXDY-UHFFFAOYSA-N

>  <BindingDB MonomerID>  (1) 
50284119

>  <BindingDB Ligand Name>  (1) 
5-(7-Methyl-2-propyl-imidazo[4,5-b]pyridin-3-ylmethyl)-2-phenyl-benzo[1,3]dithiole-2-carboxylic acid::CHEMBL165850

>  <Target Name>  (1) 
Type-1 angiotensin II receptor

>  <Target Source Organism According to Curator or DataSource>  (1) 
Oryctolagus cuniculus

>  <Ki (nM)>  (1) 


>  <IC50 (nM)>  (1) 
 34

>  <Kd (nM)>  (1) 


>  <EC50 (nM)>  (1) 


>  <kon (M-1-s-1)>  (1) 


>  <koff (s-1)>  (1) 


>  <pH>  (1) 


>  <Temp C>  (1) 


>  <Curation/DataSource>  (1) 
ChEMBL

>  <Article DOI>  (1) 
10.1016/S0960-894X(01)80193-1

>  <BindingDB Entry DOI>  (1) 
10.7270/Q2JD4WS9

>  <PMID>  (1) 


>  <PubChem AID>  (1) 


>  <Patent Number>  (1) 


>  <Authors>  (1) 
Rivero, RA; Greenlee, WJ; Chang, RS

>  <Institution>  (1) 
TBA

>  <Link to Ligand in BindingDB>  (1) 
http://www.bindingdb.org/bind/chemsearch/marvin/MolStructure.jsp?monomerid=50284119

>  <Link to Ligand-Target Pair in BindingDB>  (1) 
http://www.bindingdb.org/jsp/dbsearch/PrimarySearch_ki.jsp?energyterm=kJ/mole&tag=r21&monomerid=50284119&enzyme=Type-1+angiotensin+II+receptor&column=ki&startPg=0&Increment=50&submit=Search

>  <Ligand HET ID in PDB>  (1) 


>  <PDB ID(s) for Ligand-Target Complex>  (1) 


>  <PubChem CID of Ligand>  (1) 
44210830

>  <PubChem SID of Ligand>  (1) 
104125776

>  <ChEBI ID of Ligand>  (1) 


>  <ChEMBL ID of Ligand>  (1) 
CHEMBL165850

>  <DrugBank ID of Ligand>  (1) 


>  <IUPHAR_GRAC ID of Ligand>  (1) 


>  <KEGG ID of Ligand>  (1) 


>  <ZINC ID of Ligand>  (1) 
ZINC11686826

>  <Number of Protein Chains in Target (bigger than 1 implies a multichain complex)>  (1) 
1

>  <BindingDB Target Chain Sequence>  (1) 
MMLNSSTEDGIKRIQDDCPKAGRHNYIFVMIPTLYSIIFVVGIFGNSLAVIVIYFYMKLKTVASVFLLNLALADLCFLLTLPLWAVYTAMEYRWPFGNYLCKIASASVSFNLYASVFLLTCLSIDRYLAIVHPMKSRLRRTMLVAKVTCIIIWLLAGLASLPAIIHRNVFFIENTNITVCAFHYESQNSTLPIGLGLTKNILGFLFPFLIILTSYTLIWKALKKAYEIQKNKPRNDDIFKIIMAIVLFFFFSWVPHQIFTFLDVLIQLGVIHDCRIADIVDTAMPITICIAYFNNCLNPLFYGFLGKKFKKYFLQLLKYIPPKAKSHSNLSTKMSTLSYRPSDNVSSSSKKPVPCFEVE

>  <PDB ID(s) of Target Chain>  (1) 
6DO1,6OS0,6OS1,6OS2

>  <UniProt (SwissProt) Recommended Name of Target Chain>  (1) 
Type-1 angiotensin II receptor

>  <UniProt (SwissProt) Entry Name of Target Chain>  (1) 
AGTR1_RABIT

>  <UniProt (SwissProt) Primary ID of Target Chain>  (1) 
P34976

>  <UniProt (SwissProt) Secondary ID(s) of Target Chain>  (1) 


>  <UniProt (SwissProt) Alternative ID(s) of Target Chain>  (1) 


>  <UniProt (TrEMBL) Submitted Name of Target Chain>  (1) 


>  <UniProt (TrEMBL) Entry Name of Target Chain>  (1) 


>  <UniProt (TrEMBL) Primary ID of Target Chain>  (1) 


>  <UniProt (TrEMBL) Secondary ID(s) of Target Chain>  (1) 


>  <UniProt (TrEMBL) Alternative ID(s) of Target Chain>  (1) 


$$$$
