
     RDKit          2D

 48 54  0  0  0  0  0  0  0  0999 V2000
    1.4292   -9.6750    0.0000 N   0  0  0  0  0  0  0  0  0  0  0  0
    2.2125   -9.4167    0.0000 C   0  0  0  0  0  0  0  0  0  0  0  0
    1.4250   -8.3417    0.0000 N   0  0  0  0  0  0  0  0  0  0  0  0
    2.2042   -8.5917    0.0000 C   0  0  0  0  0  0  0  0  0  0  0  0
    5.0667   -8.5792    0.0000 C   0  0  0  0  0  0  0  0  0  0  0  0
    0.9417   -9.0042    0.0000 C   0  0  0  0  0  0  0  0  0  0  0  0
    3.2542  -13.6792    0.0000 C   0  0  0  0  0  0  0  0  0  0  0  0
    1.9167  -13.6875    0.0000 N   0  0  0  0  0  0  0  0  0  0  0  0
    2.5875  -13.2042    0.0000 N   0  0  0  0  0  0  0  0  0  0  0  0
    2.1792  -14.4750    0.0000 N   0  0  0  0  0  0  0  0  0  0  0  0
    2.9250   -9.8292    0.0000 N   0  0  0  0  0  0  0  0  0  0  0  0
    2.9250   -8.1750    0.0000 C   0  0  0  0  0  0  0  0  0  0  0  0
    4.3542   -8.1667    0.0000 N   0  0  0  0  0  0  0  0  0  0  0  0
    3.0042  -14.4667    0.0000 N   0  0  0  0  0  0  0  0  0  0  0  0
    5.7792   -8.1667    0.0000 N   0  0  0  0  0  0  0  0  0  0  0  0
    3.6417   -8.5875    0.0000 C   0  0  0  0  0  0  0  0  0  0  0  0
    3.9667  -13.2750    0.0000 C   0  0  0  0  0  0  0  0  0  0  0  0
    3.9750  -12.4500    0.0000 C   0  0  0  0  0  0  0  0  0  0  0  0
    1.4250  -10.5000    0.0000 C   0  0  0  0  0  0  0  0  0  0  0  0
    3.6417   -9.4167    0.0000 C   0  0  0  0  0  0  0  0  0  0  0  0
    5.0667   -9.4042    0.0000 O   0  0  0  0  0  0  0  0  0  0  0  0
    3.2625  -12.0375    0.0000 C   0  0  0  0  0  0  0  0  0  0  0  0
    6.5000   -8.5750    0.0000 C   0  0  0  0  0  0  0  0  0  0  0  0
    5.7792   -7.3417    0.0000 C   0  0  0  0  0  0  0  0  0  0  0  0
    2.5417  -12.4500    0.0000 C   0  0  0  0  0  0  0  0  0  0  0  0
    3.2542  -11.2042    0.0000 C   0  0  0  0  0  0  0  0  0  0  0  0
    1.8292  -11.2125    0.0000 C   0  0  0  0  0  0  0  0  0  0  0  0
    0.1167   -9.0125    0.0000 C   0  0  0  0  0  0  0  0  0  0  0  0
    2.5417  -10.7917    0.0000 C   0  0  0  0  0  0  0  0  0  0  0  0
    1.8292  -12.0375    0.0000 C   0  0  0  0  0  0  0  0  0  0  0  0
    2.9167   -7.3500    0.0000 C   0  0  0  0  0  0  0  0  0  0  0  0
    4.6875  -13.6792    0.0000 C   0  0  0  0  0  0  0  0  0  0  0  0
    4.6792  -12.0292    0.0000 C   0  0  0  0  0  0  0  0  0  0  0  0
    6.4917   -6.9292    0.0000 C   0  0  0  0  0  0  0  0  0  0  0  0
    5.0667   -6.9375    0.0000 C   0  0  0  0  0  0  0  0  0  0  0  0
    6.5000   -9.4000    0.0000 C   0  0  0  0  0  0  0  0  0  0  0  0
    7.2042   -8.1542    0.0000 C   0  0  0  0  0  0  0  0  0  0  0  0
   -0.3000   -8.3000    0.0000 C   0  0  0  0  0  0  0  0  0  0  0  0
   -1.1250   -8.3042    0.0000 C   0  0  0  0  0  0  0  0  0  0  0  0
    5.4000  -12.4417    0.0000 C   0  0  0  0  0  0  0  0  0  0  0  0
    5.4000  -13.2667    0.0000 C   0  0  0  0  0  0  0  0  0  0  0  0
   -1.5375   -7.5917    0.0000 C   0  0  0  0  0  0  0  0  0  0  0  0
    5.0542   -6.1125    0.0000 C   0  0  0  0  0  0  0  0  0  0  0  0
    7.2125   -9.8042    0.0000 C   0  0  0  0  0  0  0  0  0  0  0  0
    7.9167   -8.5625    0.0000 C   0  0  0  0  0  0  0  0  0  0  0  0
    6.4917   -6.1042    0.0000 C   0  0  0  0  0  0  0  0  0  0  0  0
    5.7750   -5.6917    0.0000 C   0  0  0  0  0  0  0  0  0  0  0  0
    7.9292   -9.3917    0.0000 C   0  0  0  0  0  0  0  0  0  0  0  0
  2  1  1  0
  3  6  2  0
  4  2  2  0
  5 13  1  0
  6  1  1  0
  7 17  1  0
  8  9  1  0
  9  7  1  0
 10 14  1  0
 11  2  1  0
 12  4  1  0
 13 16  1  0
 14  7  2  0
 15  5  1  0
 16 20  1  0
 17 18  1  0
 18 22  1  0
 19  1  1  0
 20 11  2  0
 21  5  2  0
 22 25  2  0
 23 15  1  0
 24 15  1  0
 25 30  1  0
 26 29  2  0
 27 19  1  0
 28  6  1  0
 29 27  1  0
 30 27  2  0
 31 12  1  0
 32 17  2  0
 33 18  2  0
 34 24  2  0
 35 24  1  0
 36 23  2  0
 37 23  1  0
 38 28  1  0
 39 38  1  0
 40 33  1  0
 41 40  2  0
 42 39  1  0
 43 35  2  0
 44 36  1  0
 45 37  2  0
 46 34  1  0
 47 43  1  0
 48 45  1  0
  4  3  1  0
 22 26  1  0
 12 16  2  0
 32 41  1  0
  8 10  2  0
 46 47  2  0
 44 48  2  0
M  END
>  <From>  (1) 
www.bindingDB.org

>  <BindingDB Reactant_set_id>  (1) 
50045345

>  <Ligand InChI>  (1) 
InChI=1S/C38H35N9O/c1-3-4-19-34-41-35-26(2)33(40-38(48)47(29-13-7-5-8-14-29)30-15-9-6-10-16-30)24-39-37(35)46(34)25-27-20-22-28(23-21-27)31-17-11-12-18-32(31)36-42-44-45-43-36/h5-18,20-24H,3-4,19,25H2,1-2H3,(H,40,48)(H,42,43,44,45)

>  <Ligand InChI Key>  (1) 
BWWJBFAYIYJQAS-UHFFFAOYSA-N

>  <BindingDB MonomerID>  (1) 
50049198

>  <BindingDB Ligand Name>  (1) 
3-{2-Butyl-7-methyl-3-[2'-(1H-tetrazol-5-yl)-biphenyl-4-ylmethyl]-3H-imidazo[4,5-b]pyridin-6-yl}-1,1-diphenyl-urea::3-{2-Butyl-7-methyl-3-[2'-(2H-tetrazol-5-yl)-biphenyl-4-ylmethyl]-3H-imidazo[4,5-b]pyridin-6-yl}-1,1-diphenyl-urea::CHEMBL71925

>  <Target Name>  (1) 
Type-1 angiotensin II receptor

>  <Target Source Organism According to Curator or DataSource>  (1) 
Oryctolagus cuniculus

>  <Ki (nM)>  (1) 


>  <IC50 (nM)>  (1) 
 0.600000

>  <Kd (nM)>  (1) 


>  <EC50 (nM)>  (1) 


>  <kon (M-1-s-1)>  (1) 


>  <koff (s-1)>  (1) 


>  <pH>  (1) 


>  <Temp C>  (1) 


>  <Curation/DataSource>  (1) 
ChEMBL

>  <Article DOI>  (1) 
10.1021/jm9504722

>  <BindingDB Entry DOI>  (1) 
10.7270/Q29P3299

>  <PMID>  (1) 
8576904

>  <PubChem AID>  (1) 


>  <Patent Number>  (1) 


>  <Authors>  (1) 
Wexler, RR; Greenlee, WJ; Irvin, JD; Goldberg, MR; Prendergast, K; Smith, RD; Timmermans, PB

>  <Institution>  (1) 
DuPont Pharmaceuticals Company

>  <Link to Ligand in BindingDB>  (1) 
http://www.bindingdb.org/bind/chemsearch/marvin/MolStructure.jsp?monomerid=50049198

>  <Link to Ligand-Target Pair in BindingDB>  (1) 
http://www.bindingdb.org/jsp/dbsearch/PrimarySearch_ki.jsp?energyterm=kJ/mole&tag=r21&monomerid=50049198&enzyme=Type-1+angiotensin+II+receptor&column=ki&startPg=0&Increment=50&submit=Search

>  <Ligand HET ID in PDB>  (1) 


>  <PDB ID(s) for Ligand-Target Complex>  (1) 


>  <PubChem CID of Ligand>  (1) 
44309903

>  <PubChem SID of Ligand>  (1) 
103979552

>  <ChEBI ID of Ligand>  (1) 


>  <ChEMBL ID of Ligand>  (1) 
CHEMBL71925

>  <DrugBank ID of Ligand>  (1) 


>  <IUPHAR_GRAC ID of Ligand>  (1) 


>  <KEGG ID of Ligand>  (1) 


>  <ZINC ID of Ligand>  (1) 
ZINC26288107

>  <Number of Protein Chains in Target (bigger than 1 implies a multichain complex)>  (1) 
1

>  <BindingDB Target Chain Sequence>  (1) 
MMLNSSTEDGIKRIQDDCPKAGRHNYIFVMIPTLYSIIFVVGIFGNSLAVIVIYFYMKLKTVASVFLLNLALADLCFLLTLPLWAVYTAMEYRWPFGNYLCKIASASVSFNLYASVFLLTCLSIDRYLAIVHPMKSRLRRTMLVAKVTCIIIWLLAGLASLPAIIHRNVFFIENTNITVCAFHYESQNSTLPIGLGLTKNILGFLFPFLIILTSYTLIWKALKKAYEIQKNKPRNDDIFKIIMAIVLFFFFSWVPHQIFTFLDVLIQLGVIHDCRIADIVDTAMPITICIAYFNNCLNPLFYGFLGKKFKKYFLQLLKYIPPKAKSHSNLSTKMSTLSYRPSDNVSSSSKKPVPCFEVE

>  <PDB ID(s) of Target Chain>  (1) 
6DO1,6OS0,6OS1,6OS2

>  <UniProt (SwissProt) Recommended Name of Target Chain>  (1) 
Type-1 angiotensin II receptor

>  <UniProt (SwissProt) Entry Name of Target Chain>  (1) 
AGTR1_RABIT

>  <UniProt (SwissProt) Primary ID of Target Chain>  (1) 
P34976

>  <UniProt (SwissProt) Secondary ID(s) of Target Chain>  (1) 


>  <UniProt (SwissProt) Alternative ID(s) of Target Chain>  (1) 


>  <UniProt (TrEMBL) Submitted Name of Target Chain>  (1) 


>  <UniProt (TrEMBL) Entry Name of Target Chain>  (1) 


>  <UniProt (TrEMBL) Primary ID of Target Chain>  (1) 


>  <UniProt (TrEMBL) Secondary ID(s) of Target Chain>  (1) 


>  <UniProt (TrEMBL) Alternative ID(s) of Target Chain>  (1) 


$$$$
