
     RDKit          2D

 39 42  0  0  0  0  0  0  0  0999 V2000
    3.7417   -1.7292    0.0000 S   0  0  0  0  0  0  0  0  0  0  0  0
   -0.0250   -1.6542    0.0000 N   0  0  0  0  0  0  0  0  0  0  0  0
   -0.8125   -1.3917    0.0000 C   0  0  0  0  0  0  0  0  0  0  0  0
   -0.0250   -0.3167    0.0000 N   0  0  0  0  0  0  0  0  0  0  0  0
    0.4625   -0.9792    0.0000 C   0  0  0  0  0  0  0  0  0  0  0  0
   -0.8125   -0.5667    0.0000 C   0  0  0  0  0  0  0  0  0  0  0  0
    3.5250   -0.9292    0.0000 N   0  0  0  0  0  0  0  0  0  0  0  0
    4.0000   -2.5042    0.0000 C   0  0  0  0  0  0  0  0  0  0  0  0
   -1.5250   -1.8167    0.0000 N   0  0  0  0  0  0  0  0  0  0  0  0
    3.4500   -3.1167    0.0000 C   0  0  0  0  0  0  0  0  0  0  0  0
    4.1042   -0.3417    0.0000 C   0  0  0  0  0  0  0  0  0  0  0  0
   -1.5250   -0.1542    0.0000 C   0  0  0  0  0  0  0  0  0  0  0  0
    4.5375   -1.5042    0.0000 O   0  0  0  0  0  0  0  0  0  0  0  0
    2.9417   -1.9417    0.0000 O   0  0  0  0  0  0  0  0  0  0  0  0
    0.2292   -2.4417    0.0000 C   0  0  0  0  0  0  0  0  0  0  0  0
    4.8042   -2.6792    0.0000 C   0  0  0  0  0  0  0  0  0  0  0  0
    2.6500   -2.9542    0.0000 C   0  0  0  0  0  0  0  0  0  0  0  0
   -2.2375   -1.4042    0.0000 C   0  0  0  0  0  0  0  0  0  0  0  0
    3.7042   -3.9042    0.0000 C   0  0  0  0  0  0  0  0  0  0  0  0
   -2.2375   -0.5667    0.0000 C   0  0  0  0  0  0  0  0  0  0  0  0
    4.9042   -0.5542    0.0000 O   0  0  0  0  0  0  0  0  0  0  0  0
    2.1000   -3.5667    0.0000 C   0  0  0  0  0  0  0  0  0  0  0  0
    2.3792   -2.1667    0.0000 C   0  0  0  0  0  0  0  0  0  0  0  0
    1.0375   -2.6042    0.0000 C   0  0  0  0  0  0  0  0  0  0  0  0
    3.8875    0.4583    0.0000 O   0  0  0  0  0  0  0  0  0  0  0  0
    5.0625   -3.4667    0.0000 C   0  0  0  0  0  0  0  0  0  0  0  0
    4.5125   -4.0792    0.0000 C   0  0  0  0  0  0  0  0  0  0  0  0
    1.2875   -0.9792    0.0000 C   0  0  0  0  0  0  0  0  0  0  0  0
    1.2875   -3.3917    0.0000 C   0  0  0  0  0  0  0  0  0  0  0  0
    1.5875   -1.9917    0.0000 C   0  0  0  0  0  0  0  0  0  0  0  0
   -1.5333    0.6708    0.0000 C   0  0  0  0  0  0  0  0  0  0  0  0
   -2.9583   -1.8167    0.0000 C   0  0  0  0  0  0  0  0  0  0  0  0
    4.7667   -4.8667    0.0000 C   0  0  0  0  0  0  0  0  0  0  0  0
    3.1000    0.6708    0.0000 C   0  0  0  0  0  0  0  0  0  0  0  0
    1.7000   -0.2667    0.0000 C   0  0  0  0  0  0  0  0  0  0  0  0
    2.8750    1.4583    0.0000 C   0  0  0  0  0  0  0  0  0  0  0  0
    2.0667    1.6708    0.0000 C   0  0  0  0  0  0  0  0  0  0  0  0
    4.2167   -5.4792    0.0000 C   0  0  0  0  0  0  0  0  0  0  0  0
    1.8625    2.4583    0.0000 C   0  0  0  0  0  0  0  0  0  0  0  0
  2 15  1  0
  3  2  1  0
  4  5  2  0
  5  2  1  0
  6  3  2  0
  7  1  1  0
  8  1  1  0
  9  3  1  0
 10  8  2  0
 11  7  1  0
 12  6  1  0
 13  1  2  0
 14  1  2  0
 15 24  1  0
 16  8  1  0
 17 10  1  0
 18  9  2  0
 19 10  1  0
 20 18  1  0
 21 11  2  0
 22 17  2  0
 23 17  1  0
 24 30  1  0
 25 11  1  0
 26 16  2  0
 27 26  1  0
 28  5  1  0
 29 22  1  0
 30 23  2  0
 31 12  1  0
 32 18  1  0
 33 27  1  0
 34 25  1  0
 35 28  1  0
 36 34  1  0
 37 36  1  0
 38 33  1  0
 39 37  1  0
 27 19  2  0
 29 24  2  0
  4  6  1  0
 12 20  2  0
M  END
>  <From>  (1) 
www.bindingDB.org

>  <BindingDB Reactant_set_id>  (1) 
50006071

>  <Ligand InChI>  (1) 
InChI=1S/C30H36N4O4S/c1-6-9-16-38-30(35)33-39(36,37)26-15-12-22(7-2)18-25(26)24-13-10-23(11-14-24)19-34-27(8-3)32-28-20(4)17-21(5)31-29(28)34/h10-15,17-18H,6-9,16,19H2,1-5H3,(H,33,35)

>  <Ligand InChI Key>  (1) 
HUGRVWVHJHWAPQ-UHFFFAOYSA-N

>  <BindingDB MonomerID>  (1) 
50288642

>  <BindingDB Ligand Name>  (1) 
3-[(2'-(butylsulfonylcarbamate)-3'-ethyl-1,1'-biphenyl-4-yl)methyl]-2-ethyl-5,7-dimethyl-3H-imidazo[4,5-b]pyridine::CHEMBL449095

>  <Target Name>  (1) 
Type-1 angiotensin II receptor

>  <Target Source Organism According to Curator or DataSource>  (1) 
Oryctolagus cuniculus

>  <Ki (nM)>  (1) 


>  <IC50 (nM)>  (1) 
 1.4

>  <Kd (nM)>  (1) 


>  <EC50 (nM)>  (1) 


>  <kon (M-1-s-1)>  (1) 


>  <koff (s-1)>  (1) 


>  <pH>  (1) 


>  <Temp C>  (1) 


>  <Curation/DataSource>  (1) 
ChEMBL

>  <Article DOI>  (1) 
10.1016/0960-894X(96)00017-0

>  <BindingDB Entry DOI>  (1) 
10.7270/Q25D8RVN

>  <PMID>  (1) 


>  <PubChem AID>  (1) 


>  <Patent Number>  (1) 


>  <Authors>  (1) 
Rivero, RA; Kevin, NJ; Kivlighn, SD; Zingaro, GJ; Chang, RS; Greenlee, WJ

>  <Institution>  (1) 
TBA

>  <Link to Ligand in BindingDB>  (1) 
http://www.bindingdb.org/bind/chemsearch/marvin/MolStructure.jsp?monomerid=50288642

>  <Link to Ligand-Target Pair in BindingDB>  (1) 
http://www.bindingdb.org/jsp/dbsearch/PrimarySearch_ki.jsp?energyterm=kJ/mole&tag=r21&monomerid=50288642&enzyme=Type-1+angiotensin+II+receptor&column=ki&startPg=0&Increment=50&submit=Search

>  <Ligand HET ID in PDB>  (1) 


>  <PDB ID(s) for Ligand-Target Complex>  (1) 


>  <PubChem CID of Ligand>  (1) 
15236320

>  <PubChem SID of Ligand>  (1) 
104130213

>  <ChEBI ID of Ligand>  (1) 


>  <ChEMBL ID of Ligand>  (1) 
CHEMBL449095

>  <DrugBank ID of Ligand>  (1) 


>  <IUPHAR_GRAC ID of Ligand>  (1) 


>  <KEGG ID of Ligand>  (1) 


>  <ZINC ID of Ligand>  (1) 
ZINC26831931

>  <Number of Protein Chains in Target (bigger than 1 implies a multichain complex)>  (1) 
1

>  <BindingDB Target Chain Sequence>  (1) 
MMLNSSTEDGIKRIQDDCPKAGRHNYIFVMIPTLYSIIFVVGIFGNSLAVIVIYFYMKLKTVASVFLLNLALADLCFLLTLPLWAVYTAMEYRWPFGNYLCKIASASVSFNLYASVFLLTCLSIDRYLAIVHPMKSRLRRTMLVAKVTCIIIWLLAGLASLPAIIHRNVFFIENTNITVCAFHYESQNSTLPIGLGLTKNILGFLFPFLIILTSYTLIWKALKKAYEIQKNKPRNDDIFKIIMAIVLFFFFSWVPHQIFTFLDVLIQLGVIHDCRIADIVDTAMPITICIAYFNNCLNPLFYGFLGKKFKKYFLQLLKYIPPKAKSHSNLSTKMSTLSYRPSDNVSSSSKKPVPCFEVE

>  <PDB ID(s) of Target Chain>  (1) 
6DO1,6OS0,6OS1,6OS2

>  <UniProt (SwissProt) Recommended Name of Target Chain>  (1) 
Type-1 angiotensin II receptor

>  <UniProt (SwissProt) Entry Name of Target Chain>  (1) 
AGTR1_RABIT

>  <UniProt (SwissProt) Primary ID of Target Chain>  (1) 
P34976

>  <UniProt (SwissProt) Secondary ID(s) of Target Chain>  (1) 


>  <UniProt (SwissProt) Alternative ID(s) of Target Chain>  (1) 


>  <UniProt (TrEMBL) Submitted Name of Target Chain>  (1) 


>  <UniProt (TrEMBL) Entry Name of Target Chain>  (1) 


>  <UniProt (TrEMBL) Primary ID of Target Chain>  (1) 


>  <UniProt (TrEMBL) Secondary ID(s) of Target Chain>  (1) 


>  <UniProt (TrEMBL) Alternative ID(s) of Target Chain>  (1) 


$$$$
