
     RDKit          2D

 37 40  0  0  0  0  0  0  0  0999 V2000
    1.6420   -2.0546    0.0000 N   0  0  0  0  0  0  0  0  0  0  0  0
    0.9794   -1.5670    0.0000 C   0  0  0  0  0  0  0  0  0  0  0  0
    1.2294   -0.7793    0.0000 N   0  0  0  0  0  0  0  0  0  0  0  0
    2.0546   -0.7793    0.0000 N   0  0  0  0  0  0  0  0  0  0  0  0
    2.3129   -1.5628    0.0000 C   0  0  0  0  0  0  0  0  0  0  0  0
    5.2177   -4.1133    0.0000 C   0  0  0  0  0  0  0  0  0  0  0  0
    5.9303   -4.5259    0.0000 C   0  0  0  0  0  0  0  0  0  0  0  0
    6.6430   -4.1133    0.0000 C   0  0  0  0  0  0  0  0  0  0  0  0
    6.6305   -3.2798    0.0000 C   0  0  0  0  0  0  0  0  0  0  0  0
    4.5051   -4.5301    0.0000 N   0  0  0  0  0  0  0  0  0  0  0  0
    1.6420   -2.8797    0.0000 C   0  0  0  0  0  0  0  0  0  0  0  0
    5.2177   -3.2881    0.0000 O   0  0  0  0  0  0  0  0  0  0  0  0
    5.9178   -2.8755    0.0000 O   0  0  0  0  0  0  0  0  0  0  0  0
    0.1542   -1.5670    0.0000 S   0  0  0  0  0  0  0  0  0  0  0  0
    3.7882   -4.1175    0.0000 C   0  0  0  0  0  0  0  0  0  0  0  0
    2.3546   -3.2881    0.0000 C   0  0  0  0  0  0  0  0  0  0  0  0
    7.3431   -2.8672    0.0000 O   0  0  0  0  0  0  0  0  0  0  0  0
    3.1381   -1.5628    0.0000 C   0  0  0  0  0  0  0  0  0  0  0  0
    3.0798   -4.5259    0.0000 C   0  0  0  0  0  0  0  0  0  0  0  0
    3.7882   -3.2881    0.0000 C   0  0  0  0  0  0  0  0  0  0  0  0
    3.0756   -2.8755    0.0000 C   0  0  0  0  0  0  0  0  0  0  0  0
    2.3629   -4.1175    0.0000 C   0  0  0  0  0  0  0  0  0  0  0  0
    5.9303   -5.3510    0.0000 C   0  0  0  0  0  0  0  0  0  0  0  0
    7.3556   -4.5176    0.0000 C   0  0  0  0  0  0  0  0  0  0  0  0
    4.7801   -0.1292    0.0000 C   0  0  0  0  0  0  0  0  0  0  0  0
    3.5424   -0.8419    0.0000 C   0  0  0  0  0  0  0  0  0  0  0  0
   -0.2583   -0.8502    0.0000 C   0  0  0  0  0  0  0  0  0  0  0  0
    4.3675   -0.8419    0.0000 C   0  0  0  0  0  0  0  0  0  0  0  0
    5.5928   -0.1292    0.0000 C   0  0  0  0  0  0  0  0  0  0  0  0
    4.3633    0.5709    0.0000 C   0  0  0  0  0  0  0  0  0  0  0  0
   -1.0835   -0.8502    0.0000 C   0  0  0  0  0  0  0  0  0  0  0  0
    6.6430   -5.7636    0.0000 C   0  0  0  0  0  0  0  0  0  0  0  0
    7.3556   -5.3510    0.0000 C   0  0  0  0  0  0  0  0  0  0  0  0
   -1.4961   -0.1292    0.0000 C   0  0  0  0  0  0  0  0  0  0  0  0
    4.7676    1.2835    0.0000 C   0  0  0  0  0  0  0  0  0  0  0  0
    6.0053    0.5834    0.0000 C   0  0  0  0  0  0  0  0  0  0  0  0
    5.5928    1.2877    0.0000 C   0  0  0  0  0  0  0  0  0  0  0  0
  2  1  1  0
  3  2  2  0
  4  5  2  0
  5  1  1  0
  6 10  1  0
  7  6  1  0
  8  7  2  0
  9  8  1  0
 10 15  1  0
 11  1  1  0
 12  6  2  0
 13  9  2  0
 14  2  1  0
 15 19  2  0
 16 11  1  0
 17  9  1  0
 18  5  1  0
 19 22  1  0
 20 21  2  0
 21 16  1  0
 22 16  2  0
 23  7  1  0
 24  8  1  0
 25 28  1  0
 26 18  1  0
 27 14  1  0
 28 26  1  0
 29 25  2  0
 30 25  1  0
 31 27  1  0
 32 23  2  0
 33 32  1  0
 34 31  1  0
 35 30  2  0
 36 29  1  0
 37 35  1  0
  4  3  1  0
 20 15  1  0
 36 37  2  0
 33 24  2  0
M  END
>  <From>  (1) 
www.bindingDB.org

>  <BindingDB Reactant_set_id>  (1) 
50035039

>  <Ligand InChI>  (1) 
InChI=1S/C29H30N4O3S/c1-2-19-37-29-32-31-26(14-8-11-21-9-4-3-5-10-21)33(29)20-22-15-17-23(18-16-22)30-27(34)24-12-6-7-13-25(24)28(35)36/h3-7,9-10,12-13,15-18H,2,8,11,14,19-20H2,1H3,(H,30,34)(H,35,36)

>  <Ligand InChI Key>  (1) 
RHIHAWHWTPVHHB-UHFFFAOYSA-N

>  <BindingDB MonomerID>  (1) 
50047819

>  <BindingDB Ligand Name>  (1) 
CHEMBL156396::N-{4-[3-(3-Phenyl-propyl)-5-propylsulfanyl-[1,2,4]triazol-4-ylmethyl]-phenyl}-phthalamic acid

>  <Target Name>  (1) 
Type-1 angiotensin II receptor

>  <Target Source Organism According to Curator or DataSource>  (1) 
Oryctolagus cuniculus

>  <Ki (nM)>  (1) 


>  <IC50 (nM)>  (1) 
 320

>  <Kd (nM)>  (1) 


>  <EC50 (nM)>  (1) 


>  <kon (M-1-s-1)>  (1) 


>  <koff (s-1)>  (1) 


>  <pH>  (1) 


>  <Temp C>  (1) 


>  <Curation/DataSource>  (1) 
ChEMBL

>  <Article DOI>  (1) 
10.1021/jm00057a009

>  <BindingDB Entry DOI>  (1) 
10.7270/Q2P55MKH

>  <PMID>  (1) 
8496939

>  <PubChem AID>  (1) 


>  <Patent Number>  (1) 


>  <Authors>  (1) 
Ashton, WT; Cantone, CL; Chang, LL; Hutchins, SM; Strelitz, RA; MacCoss, M; Chang, RS; Lotti, VJ; Faust, KA; Chen, TB

>  <Institution>  (1) 
Merck Research Laboratories

>  <Link to Ligand in BindingDB>  (1) 
http://www.bindingdb.org/bind/chemsearch/marvin/MolStructure.jsp?monomerid=50047819

>  <Link to Ligand-Target Pair in BindingDB>  (1) 
http://www.bindingdb.org/jsp/dbsearch/PrimarySearch_ki.jsp?energyterm=kJ/mole&tag=r21&monomerid=50047819&enzyme=Type-1+angiotensin+II+receptor&column=ki&startPg=0&Increment=50&submit=Search

>  <Ligand HET ID in PDB>  (1) 


>  <PDB ID(s) for Ligand-Target Complex>  (1) 


>  <PubChem CID of Ligand>  (1) 
11756222

>  <PubChem SID of Ligand>  (1) 
103978383

>  <ChEBI ID of Ligand>  (1) 


>  <ChEMBL ID of Ligand>  (1) 
CHEMBL156396

>  <DrugBank ID of Ligand>  (1) 


>  <IUPHAR_GRAC ID of Ligand>  (1) 


>  <KEGG ID of Ligand>  (1) 
C06374

>  <ZINC ID of Ligand>  (1) 
ZINC13825603

>  <Number of Protein Chains in Target (bigger than 1 implies a multichain complex)>  (1) 
1

>  <BindingDB Target Chain Sequence>  (1) 
MMLNSSTEDGIKRIQDDCPKAGRHNYIFVMIPTLYSIIFVVGIFGNSLAVIVIYFYMKLKTVASVFLLNLALADLCFLLTLPLWAVYTAMEYRWPFGNYLCKIASASVSFNLYASVFLLTCLSIDRYLAIVHPMKSRLRRTMLVAKVTCIIIWLLAGLASLPAIIHRNVFFIENTNITVCAFHYESQNSTLPIGLGLTKNILGFLFPFLIILTSYTLIWKALKKAYEIQKNKPRNDDIFKIIMAIVLFFFFSWVPHQIFTFLDVLIQLGVIHDCRIADIVDTAMPITICIAYFNNCLNPLFYGFLGKKFKKYFLQLLKYIPPKAKSHSNLSTKMSTLSYRPSDNVSSSSKKPVPCFEVE

>  <PDB ID(s) of Target Chain>  (1) 
6DO1,6OS0,6OS1,6OS2

>  <UniProt (SwissProt) Recommended Name of Target Chain>  (1) 
Type-1 angiotensin II receptor

>  <UniProt (SwissProt) Entry Name of Target Chain>  (1) 
AGTR1_RABIT

>  <UniProt (SwissProt) Primary ID of Target Chain>  (1) 
P34976

>  <UniProt (SwissProt) Secondary ID(s) of Target Chain>  (1) 


>  <UniProt (SwissProt) Alternative ID(s) of Target Chain>  (1) 


>  <UniProt (TrEMBL) Submitted Name of Target Chain>  (1) 


>  <UniProt (TrEMBL) Entry Name of Target Chain>  (1) 


>  <UniProt (TrEMBL) Primary ID of Target Chain>  (1) 


>  <UniProt (TrEMBL) Secondary ID(s) of Target Chain>  (1) 


>  <UniProt (TrEMBL) Alternative ID(s) of Target Chain>  (1) 


$$$$
