
     RDKit          2D

 39 44  0  0  0  0  0  0  0  0999 V2000
    5.4125   -4.7125    0.0000 N   0  0  0  0  0  0  0  0  0  0  0  0
    4.6917   -4.3042    0.0000 C   0  0  0  0  0  0  0  0  0  0  0  0
    3.9875   -4.7167    0.0000 C   0  0  0  0  0  0  0  0  0  0  0  0
    5.4167   -5.5417    0.0000 C   0  0  0  0  0  0  0  0  0  0  0  0
    4.7042   -5.9542    0.0000 N   0  0  0  0  0  0  0  0  0  0  0  0
    9.4042   -2.8625    0.0000 C   0  0  0  0  0  0  0  0  0  0  0  0
    8.5792   -2.7792    0.0000 N   0  0  0  0  0  0  0  0  0  0  0  0
    8.4042   -1.9792    0.0000 N   0  0  0  0  0  0  0  0  0  0  0  0
    9.7292   -2.1042    0.0000 N   0  0  0  0  0  0  0  0  0  0  0  0
    3.9875   -5.5417    0.0000 C   0  0  0  0  0  0  0  0  0  0  0  0
    9.1167   -1.5542    0.0000 N   0  0  0  0  0  0  0  0  0  0  0  0
    3.2667   -4.3042    0.0000 C   0  0  0  0  0  0  0  0  0  0  0  0
    9.8250   -3.5750    0.0000 C   0  0  0  0  0  0  0  0  0  0  0  0
    9.4167   -4.2917    0.0000 C   0  0  0  0  0  0  0  0  0  0  0  0
    2.5542   -4.7250    0.0000 C   0  0  0  0  0  0  0  0  0  0  0  0
    6.1250   -4.2917    0.0000 C   0  0  0  0  0  0  0  0  0  0  0  0
    4.6917   -3.4792    0.0000 O   0  0  0  0  0  0  0  0  0  0  0  0
    8.5917   -4.2917    0.0000 C   0  0  0  0  0  0  0  0  0  0  0  0
    1.8417   -3.4792    0.0000 N   0  0  0  0  0  0  0  0  0  0  0  0
    1.8417   -4.3125    0.0000 C   0  0  0  0  0  0  0  0  0  0  0  0
    3.2667   -5.9625    0.0000 C   0  0  0  0  0  0  0  0  0  0  0  0
    2.5542   -5.5500    0.0000 C   0  0  0  0  0  0  0  0  0  0  0  0
    8.1750   -3.5792    0.0000 C   0  0  0  0  0  0  0  0  0  0  0  0
    8.1792   -5.0042    0.0000 C   0  0  0  0  0  0  0  0  0  0  0  0
    6.9500   -4.2917    0.0000 C   0  0  0  0  0  0  0  0  0  0  0  0
    6.0000   -6.1167    0.0000 C   0  0  0  0  0  0  0  0  0  0  0  0
    7.3542   -5.0042    0.0000 C   0  0  0  0  0  0  0  0  0  0  0  0
    7.3542   -3.5792    0.0000 C   0  0  0  0  0  0  0  0  0  0  0  0
   10.6417   -3.5667    0.0000 C   0  0  0  0  0  0  0  0  0  0  0  0
    9.8292   -5.0042    0.0000 C   0  0  0  0  0  0  0  0  0  0  0  0
    1.1292   -3.0667    0.0000 C   0  0  0  0  0  0  0  0  0  0  0  0
    1.1292   -4.7167    0.0000 C   0  0  0  0  0  0  0  0  0  0  0  0
    6.7917   -5.9042    0.0000 C   0  0  0  0  0  0  0  0  0  0  0  0
    7.3792   -6.4875    0.0000 C   0  0  0  0  0  0  0  0  0  0  0  0
   10.6542   -5.0042    0.0000 C   0  0  0  0  0  0  0  0  0  0  0  0
   11.0667   -4.2875    0.0000 C   0  0  0  0  0  0  0  0  0  0  0  0
    0.4167   -3.4792    0.0000 C   0  0  0  0  0  0  0  0  0  0  0  0
    8.1750   -6.2750    0.0000 C   0  0  0  0  0  0  0  0  0  0  0  0
    0.4167   -4.3042    0.0000 C   0  0  0  0  0  0  0  0  0  0  0  0
  2  1  1  0
  3  2  1  0
  4  1  1  0
  5  4  2  0
  6 13  1  0
  7  6  1  0
  8  7  1  0
  9  6  2  0
 10  5  1  0
 11  9  1  0
 12  3  2  0
 13 14  1  0
 14 18  1  0
 15 12  1  0
 16  1  1  0
 17  2  2  0
 18 23  2  0
 19 20  2  0
 20 15  1  0
 21 10  2  0
 22 21  1  0
 23 28  1  0
 24 27  2  0
 25 16  1  0
 26  4  1  0
 27 25  1  0
 28 25  2  0
 29 13  2  0
 30 14  2  0
 31 19  1  0
 32 20  1  0
 33 26  1  0
 34 33  1  0
 35 30  1  0
 36 35  2  0
 37 39  1  0
 38 34  1  0
 39 32  2  0
 10  3  1  0
 18 24  1  0
 22 15  2  0
 37 31  2  0
 36 29  1  0
  8 11  2  0
M  END
>  <From>  (1) 
www.bindingDB.org

>  <BindingDB Reactant_set_id>  (1) 
50002393

>  <Ligand InChI>  (1) 
InChI=1S/C31H27N7O/c1-2-3-11-29-33-28-17-16-23(27-10-6-7-18-32-27)19-26(28)31(39)38(29)20-21-12-14-22(15-13-21)24-8-4-5-9-25(24)30-34-36-37-35-30/h4-10,12-19H,2-3,11,20H2,1H3,(H,34,35,36,37)

>  <Ligand InChI Key>  (1) 
VYVSVTRRYTZNOC-UHFFFAOYSA-N

>  <BindingDB MonomerID>  (1) 
50281965

>  <BindingDB Ligand Name>  (1) 
2-Butyl-6-pyridin-2-yl-3-[2'-(2H-tetrazol-5-yl)-biphenyl-4-ylmethyl]-3H-quinazolin-4-one::CHEMBL25313

>  <Target Name>  (1) 
Type-1 angiotensin II receptor

>  <Target Source Organism According to Curator or DataSource>  (1) 
Oryctolagus cuniculus

>  <Ki (nM)>  (1) 


>  <IC50 (nM)>  (1) 
 5

>  <Kd (nM)>  (1) 


>  <EC50 (nM)>  (1) 


>  <kon (M-1-s-1)>  (1) 


>  <koff (s-1)>  (1) 


>  <pH>  (1) 


>  <Temp C>  (1) 


>  <Curation/DataSource>  (1) 
ChEMBL

>  <Article DOI>  (1) 
10.1016/S0960-894X(00)80335-2

>  <BindingDB Entry DOI>  (1) 
10.7270/Q29P31KG

>  <PMID>  (1) 


>  <PubChem AID>  (1) 


>  <Patent Number>  (1) 


>  <Authors>  (1) 
de Laszlo, SE; Allen, EE; Quagliato, CS; Greenlee, WJ; Patchett, AA; Nachbar, RB; Sieg, PK; Chang, RS; Kivlighn, SD; Schorn, TS; Faust, KA; Chen, TB; Zingaro, GJ; Lotti, VJ

>  <Institution>  (1) 
TBA

>  <Link to Ligand in BindingDB>  (1) 
http://www.bindingdb.org/bind/chemsearch/marvin/MolStructure.jsp?monomerid=50281965

>  <Link to Ligand-Target Pair in BindingDB>  (1) 
http://www.bindingdb.org/jsp/dbsearch/PrimarySearch_ki.jsp?energyterm=kJ/mole&tag=r21&monomerid=50281965&enzyme=Type-1+angiotensin+II+receptor&column=ki&startPg=0&Increment=50&submit=Search

>  <Ligand HET ID in PDB>  (1) 


>  <PDB ID(s) for Ligand-Target Complex>  (1) 


>  <PubChem CID of Ligand>  (1) 
44275108

>  <PubChem SID of Ligand>  (1) 
104123639

>  <ChEBI ID of Ligand>  (1) 


>  <ChEMBL ID of Ligand>  (1) 
CHEMBL25313

>  <DrugBank ID of Ligand>  (1) 


>  <IUPHAR_GRAC ID of Ligand>  (1) 


>  <KEGG ID of Ligand>  (1) 


>  <ZINC ID of Ligand>  (1) 
ZINC28759215

>  <Number of Protein Chains in Target (bigger than 1 implies a multichain complex)>  (1) 
1

>  <BindingDB Target Chain Sequence>  (1) 
MMLNSSTEDGIKRIQDDCPKAGRHNYIFVMIPTLYSIIFVVGIFGNSLAVIVIYFYMKLKTVASVFLLNLALADLCFLLTLPLWAVYTAMEYRWPFGNYLCKIASASVSFNLYASVFLLTCLSIDRYLAIVHPMKSRLRRTMLVAKVTCIIIWLLAGLASLPAIIHRNVFFIENTNITVCAFHYESQNSTLPIGLGLTKNILGFLFPFLIILTSYTLIWKALKKAYEIQKNKPRNDDIFKIIMAIVLFFFFSWVPHQIFTFLDVLIQLGVIHDCRIADIVDTAMPITICIAYFNNCLNPLFYGFLGKKFKKYFLQLLKYIPPKAKSHSNLSTKMSTLSYRPSDNVSSSSKKPVPCFEVE

>  <PDB ID(s) of Target Chain>  (1) 
6DO1,6OS0,6OS1,6OS2

>  <UniProt (SwissProt) Recommended Name of Target Chain>  (1) 
Type-1 angiotensin II receptor

>  <UniProt (SwissProt) Entry Name of Target Chain>  (1) 
AGTR1_RABIT

>  <UniProt (SwissProt) Primary ID of Target Chain>  (1) 
P34976

>  <UniProt (SwissProt) Secondary ID(s) of Target Chain>  (1) 


>  <UniProt (SwissProt) Alternative ID(s) of Target Chain>  (1) 


>  <UniProt (TrEMBL) Submitted Name of Target Chain>  (1) 


>  <UniProt (TrEMBL) Entry Name of Target Chain>  (1) 


>  <UniProt (TrEMBL) Primary ID of Target Chain>  (1) 


>  <UniProt (TrEMBL) Secondary ID(s) of Target Chain>  (1) 


>  <UniProt (TrEMBL) Alternative ID(s) of Target Chain>  (1) 


$$$$
