
     RDKit          2D

 46 50  0  0  0  0  0  0  0  0999 V2000
    2.6984   -1.6042    0.0000 N   0  0  0  0  0  0  0  0  0  0  0  0
    5.8495   -4.1136    0.0000 S   0  0  0  0  0  0  0  0  0  0  0  0
    2.2859   -2.8875    0.0000 N   0  0  0  0  0  0  0  0  0  0  0  0
    2.9448   -2.3948    0.0000 C   0  0  0  0  0  0  0  0  0  0  0  0
    6.5542   -2.8761    0.0000 S   0  0  0  0  0  0  0  0  0  0  0  0
    5.8437   -3.2886    0.0000 N   0  0  0  0  0  0  0  0  0  0  0  0
    1.8734   -1.6156    0.0000 N   0  0  0  0  0  0  0  0  0  0  0  0
    1.6156   -2.3948    0.0000 C   0  0  0  0  0  0  0  0  0  0  0  0
    2.8417   -0.2062    0.0000 C   0  0  0  0  0  0  0  0  0  0  0  0
    3.1797   -0.9511    0.0000 C   0  0  0  0  0  0  0  0  0  0  0  0
    2.0167   -0.1261    0.0000 C   0  0  0  0  0  0  0  0  0  0  0  0
    5.8495   -4.9386    0.0000 C   0  0  0  0  0  0  0  0  0  0  0  0
    5.1391   -5.3511    0.0000 C   0  0  0  0  0  0  0  0  0  0  0  0
    2.2859   -3.7125    0.0000 C   0  0  0  0  0  0  0  0  0  0  0  0
    6.6745   -4.1136    0.0000 O   0  0  0  0  0  0  0  0  0  0  0  0
    5.0245   -4.1136    0.0000 O   0  0  0  0  0  0  0  0  0  0  0  0
    7.2703   -3.2828    0.0000 O   0  0  0  0  0  0  0  0  0  0  0  0
    6.5484   -2.0511    0.0000 O   0  0  0  0  0  0  0  0  0  0  0  0
    3.7355   -2.6526    0.0000 O   0  0  0  0  0  0  0  0  0  0  0  0
    7.2589   -2.4578    0.0000 C   0  0  0  0  0  0  0  0  0  0  0  0
    4.4230   -4.9386    0.0000 C   0  0  0  0  0  0  0  0  0  0  0  0
    1.4094   -0.7276    0.0000 F   0  0  0  0  0  0  0  0  0  0  0  0
    1.2719   -0.0402    0.0000 F   0  0  0  0  0  0  0  0  0  0  0  0
    1.5469    0.5958    0.0000 F   0  0  0  0  0  0  0  0  0  0  0  0
    4.4230   -4.1136    0.0000 C   0  0  0  0  0  0  0  0  0  0  0  0
    3.7125   -5.3511    0.0000 C   0  0  0  0  0  0  0  0  0  0  0  0
    2.9964   -4.1136    0.0000 C   0  0  0  0  0  0  0  0  0  0  0  0
    0.8308   -2.6526    0.0000 C   0  0  0  0  0  0  0  0  0  0  0  0
    3.3230    0.4583    0.0000 C   0  0  0  0  0  0  0  0  0  0  0  0
    3.7011   -3.7011    0.0000 C   0  0  0  0  0  0  0  0  0  0  0  0
    2.9964   -4.9386    0.0000 C   0  0  0  0  0  0  0  0  0  0  0  0
    3.9933   -1.0370    0.0000 C   0  0  0  0  0  0  0  0  0  0  0  0
    6.5656   -5.3511    0.0000 C   0  0  0  0  0  0  0  0  0  0  0  0
    5.1391   -6.1761    0.0000 C   0  0  0  0  0  0  0  0  0  0  0  0
    7.9808   -2.8589    0.0000 C   0  0  0  0  0  0  0  0  0  0  0  0
    7.2531   -1.6386    0.0000 C   0  0  0  0  0  0  0  0  0  0  0  0
    0.2120   -2.1026    0.0000 C   0  0  0  0  0  0  0  0  0  0  0  0
   -0.5672   -2.3547    0.0000 C   0  0  0  0  0  0  0  0  0  0  0  0
    4.1422    0.3781    0.0000 C   0  0  0  0  0  0  0  0  0  0  0  0
    4.4745   -0.3781    0.0000 C   0  0  0  0  0  0  0  0  0  0  0  0
    5.8495   -6.5886    0.0000 C   0  0  0  0  0  0  0  0  0  0  0  0
    6.5714   -6.1761    0.0000 C   0  0  0  0  0  0  0  0  0  0  0  0
   -1.1802   -1.8047    0.0000 C   0  0  0  0  0  0  0  0  0  0  0  0
    7.9578   -1.2089    0.0000 C   0  0  0  0  0  0  0  0  0  0  0  0
    8.6855   -2.4464    0.0000 C   0  0  0  0  0  0  0  0  0  0  0  0
    8.6797   -1.6214    0.0000 C   0  0  0  0  0  0  0  0  0  0  0  0
  2 12  1  0
  3  4  1  0
  4  1  1  0
  5  6  1  0
  6  2  1  0
  7  1  1  0
  8  7  2  0
  9 10  2  0
 10  1  1  0
 11  9  1  0
 12 13  1  0
 13 21  1  0
 14  3  1  0
 15  2  2  0
 16  2  2  0
 17  5  2  0
 18  5  2  0
 19  4  2  0
 20  5  1  0
 21 26  2  0
 22 11  1  0
 23 11  1  0
 24 11  1  0
 25 30  2  0
 26 31  1  0
 27 14  1  0
 28  8  1  0
 29  9  1  0
 30 27  1  0
 31 27  2  0
 32 10  1  0
 33 12  2  0
 34 13  2  0
 35 20  2  0
 36 20  1  0
 37 28  1  0
 38 37  1  0
 39 40  1  0
 40 32  2  0
 41 34  1  0
 42 41  2  0
 43 38  1  0
 44 36  2  0
 45 35  1  0
 46 44  1  0
  3  8  1  0
 39 29  2  0
 25 21  1  0
 42 33  1  0
 46 45  2  0
M  END
>  <From>  (1) 
www.bindingDB.org

>  <BindingDB Reactant_set_id>  (1) 
50036516

>  <Ligand InChI>  (1) 
InChI=1S/C32H29F3N4O5S2/c1-2-3-17-30-36-39(28-15-9-8-14-27(28)32(33,34)35)31(40)38(30)22-23-18-20-24(21-19-23)26-13-7-10-16-29(26)46(43,44)37-45(41,42)25-11-5-4-6-12-25/h4-16,18-21,37H,2-3,17,22H2,1H3

>  <Ligand InChI Key>  (1) 
FISKGPNVOMOSRW-UHFFFAOYSA-N

>  <BindingDB MonomerID>  (1) 
50039895

>  <BindingDB Ligand Name>  (1) 
2-{4-[3-butyl-5-oxo-1-(2-trifluoromethylphenyl)-4,5-dihydro-1H-1,2,4-triazol-4-ylmethyl]phenyl}-1-(N-phenylsulphonyl)benzenesulfonamide::CHEMBL97332

>  <Target Name>  (1) 
Type-1 angiotensin II receptor

>  <Target Source Organism According to Curator or DataSource>  (1) 
Oryctolagus cuniculus

>  <Ki (nM)>  (1) 


>  <IC50 (nM)>  (1) 
 0.200000

>  <Kd (nM)>  (1) 


>  <EC50 (nM)>  (1) 


>  <kon (M-1-s-1)>  (1) 


>  <koff (s-1)>  (1) 


>  <pH>  (1) 


>  <Temp C>  (1) 


>  <Curation/DataSource>  (1) 
ChEMBL

>  <Article DOI>  (1) 
10.1021/jm00043a020

>  <BindingDB Entry DOI>  (1) 
10.7270/Q2M907QM

>  <PMID>  (1) 
8064808

>  <PubChem AID>  (1) 


>  <Patent Number>  (1) 


>  <Authors>  (1) 
Ashton, WT; Chang, LL; Flanagan, KL; Hutchins, SM; Naylor, EM; Chakravarty, PK; Patchett, AA; Greenlee, WJ; Chen, TB; Faust, KA

>  <Institution>  (1) 
Merck Research Laboratories

>  <Link to Ligand in BindingDB>  (1) 
http://www.bindingdb.org/bind/chemsearch/marvin/MolStructure.jsp?monomerid=50039895

>  <Link to Ligand-Target Pair in BindingDB>  (1) 
http://www.bindingdb.org/jsp/dbsearch/PrimarySearch_ki.jsp?energyterm=kJ/mole&tag=r21&monomerid=50039895&enzyme=Type-1+angiotensin+II+receptor&column=ki&startPg=0&Increment=50&submit=Search

>  <Ligand HET ID in PDB>  (1) 


>  <PDB ID(s) for Ligand-Target Complex>  (1) 


>  <PubChem CID of Ligand>  (1) 
10349512

>  <PubChem SID of Ligand>  (1) 
103947090

>  <ChEBI ID of Ligand>  (1) 


>  <ChEMBL ID of Ligand>  (1) 
CHEMBL97332

>  <DrugBank ID of Ligand>  (1) 


>  <IUPHAR_GRAC ID of Ligand>  (1) 


>  <KEGG ID of Ligand>  (1) 


>  <ZINC ID of Ligand>  (1) 
ZINC26719212

>  <Number of Protein Chains in Target (bigger than 1 implies a multichain complex)>  (1) 
1

>  <BindingDB Target Chain Sequence>  (1) 
MMLNSSTEDGIKRIQDDCPKAGRHNYIFVMIPTLYSIIFVVGIFGNSLAVIVIYFYMKLKTVASVFLLNLALADLCFLLTLPLWAVYTAMEYRWPFGNYLCKIASASVSFNLYASVFLLTCLSIDRYLAIVHPMKSRLRRTMLVAKVTCIIIWLLAGLASLPAIIHRNVFFIENTNITVCAFHYESQNSTLPIGLGLTKNILGFLFPFLIILTSYTLIWKALKKAYEIQKNKPRNDDIFKIIMAIVLFFFFSWVPHQIFTFLDVLIQLGVIHDCRIADIVDTAMPITICIAYFNNCLNPLFYGFLGKKFKKYFLQLLKYIPPKAKSHSNLSTKMSTLSYRPSDNVSSSSKKPVPCFEVE

>  <PDB ID(s) of Target Chain>  (1) 
6DO1,6OS0,6OS1,6OS2

>  <UniProt (SwissProt) Recommended Name of Target Chain>  (1) 
Type-1 angiotensin II receptor

>  <UniProt (SwissProt) Entry Name of Target Chain>  (1) 
AGTR1_RABIT

>  <UniProt (SwissProt) Primary ID of Target Chain>  (1) 
P34976

>  <UniProt (SwissProt) Secondary ID(s) of Target Chain>  (1) 


>  <UniProt (SwissProt) Alternative ID(s) of Target Chain>  (1) 


>  <UniProt (TrEMBL) Submitted Name of Target Chain>  (1) 


>  <UniProt (TrEMBL) Entry Name of Target Chain>  (1) 


>  <UniProt (TrEMBL) Primary ID of Target Chain>  (1) 


>  <UniProt (TrEMBL) Secondary ID(s) of Target Chain>  (1) 


>  <UniProt (TrEMBL) Alternative ID(s) of Target Chain>  (1) 


$$$$
