
     RDKit          2D

 35 38  0  0  0  0  0  0  0  0999 V2000
    3.7382   -3.1977    0.0000 N   0  0  0  0  0  0  0  0  0  0  0  0
    3.4822   -2.4068    0.0000 C   0  0  0  0  0  0  0  0  0  0  0  0
    2.3954   -3.1977    0.0000 N   0  0  0  0  0  0  0  0  0  0  0  0
    2.6515   -2.4125    0.0000 C   0  0  0  0  0  0  0  0  0  0  0  0
    3.0725   -3.6757    0.0000 C   0  0  0  0  0  0  0  0  0  0  0  0
    8.0226   -4.4779    0.0000 C   0  0  0  0  0  0  0  0  0  0  0  0
    7.6129   -3.7723    0.0000 C   0  0  0  0  0  0  0  0  0  0  0  0
    7.6129   -5.2062    0.0000 C   0  0  0  0  0  0  0  0  0  0  0  0
    1.6956   -1.0811    0.0000 N   0  0  0  0  0  0  0  0  0  0  0  0
    4.3186   -3.7723    0.0000 C   0  0  0  0  0  0  0  0  0  0  0  0
    2.9929   -1.6615    0.0000 C   0  0  0  0  0  0  0  0  0  0  0  0
    1.8435   -2.4979    0.0000 C   0  0  0  0  0  0  0  0  0  0  0  0
    0.4097   -0.4154    0.0000 C   0  0  0  0  0  0  0  0  0  0  0  0
    6.7823   -3.7723    0.0000 C   0  0  0  0  0  0  0  0  0  0  0  0
    3.9658   -1.7411    0.0000 O   0  0  0  0  0  0  0  0  0  0  0  0
    8.0226   -5.9117    0.0000 O   0  0  0  0  0  0  0  0  0  0  0  0
    1.2177   -0.4154    0.0000 C   0  0  0  0  0  0  0  0  0  0  0  0
    0.0057   -1.1266    0.0000 O   0  0  0  0  0  0  0  0  0  0  0  0
    1.3655   -1.8322    0.0000 C   0  0  0  0  0  0  0  0  0  0  0  0
    2.5149   -0.9958    0.0000 C   0  0  0  0  0  0  0  0  0  0  0  0
    6.3669   -3.0554    0.0000 C   0  0  0  0  0  0  0  0  0  0  0  0
    6.3726   -4.4892    0.0000 C   0  0  0  0  0  0  0  0  0  0  0  0
    5.1436   -3.7723    0.0000 C   0  0  0  0  0  0  0  0  0  0  0  0
    6.7823   -5.2062    0.0000 O   0  0  0  0  0  0  0  0  0  0  0  0
    3.0612   -4.5063    0.0000 C   0  0  0  0  0  0  0  0  0  0  0  0
    0.0000    0.2844    0.0000 O   0  0  0  0  0  0  0  0  0  0  0  0
    5.5475   -3.0554    0.0000 C   0  0  0  0  0  0  0  0  0  0  0  0
    5.5475   -4.4892    0.0000 C   0  0  0  0  0  0  0  0  0  0  0  0
    8.8477   -4.4779    0.0000 C   0  0  0  0  0  0  0  0  0  0  0  0
    8.0113   -3.0554    0.0000 C   0  0  0  0  0  0  0  0  0  0  0  0
    2.3556   -4.9160    0.0000 C   0  0  0  0  0  0  0  0  0  0  0  0
    2.3556   -5.7410    0.0000 C   0  0  0  0  0  0  0  0  0  0  0  0
    9.2573   -3.7610    0.0000 C   0  0  0  0  0  0  0  0  0  0  0  0
    8.8419   -3.0441    0.0000 C   0  0  0  0  0  0  0  0  0  0  0  0
    1.6444   -6.1507    0.0000 C   0  0  0  0  0  0  0  0  0  0  0  0
  2  1  1  0
  3  5  2  0
  4  2  1  0
  5  1  1  0
  6  7  2  0
  7 14  1  0
  8  6  1  0
  9 19  1  0
 10  1  1  0
 11  4  1  0
 12  4  1  0
 13 17  1  0
 14 22  2  0
 15  2  2  0
 16  8  2  0
 17  9  1  0
 18 13  2  0
 19 12  1  0
 20 11  1  0
 21 27  2  0
 22 28  1  0
 23 10  1  0
 24  8  1  0
 25  5  1  0
 26 13  1  0
 27 23  1  0
 28 23  2  0
 29  6  1  0
 30  7  1  0
 31 25  1  0
 32 31  1  0
 33 34  1  0
 34 30  2  0
 35 32  1  0
  3  4  1  0
 21 14  1  0
 20  9  1  0
 29 33  2  0
M  END
>  <From>  (1) 
www.bindingDB.org

>  <BindingDB Reactant_set_id>  (1) 
50067250

>  <Ligand InChI>  (1) 
InChI=1S/C27H31N3O5/c1-2-3-8-23-28-27(13-15-29(16-14-27)18-24(31)32)26(35)30(23)17-19-9-11-20(12-10-19)21-6-4-5-7-22(21)25(33)34/h4-7,9-12H,2-3,8,13-18H2,1H3,(H,31,32)(H,33,34)

>  <Ligand InChI Key>  (1) 
JTMFSHYNCXRJGZ-UHFFFAOYSA-N

>  <BindingDB MonomerID>  (1) 
50042269

>  <BindingDB Ligand Name>  (1) 
4'-(2-Butyl-8-carboxymethyl-4-oxo-1,3,8-triaza-spiro[4.5]dec-1-en-3-ylmethyl)-biphenyl-2-carboxylic acid::CHEMBL114590

>  <Target Name>  (1) 
Type-1 angiotensin II receptor B

>  <Target Source Organism According to Curator or DataSource>  (1) 
Rattus

>  <Ki (nM)>  (1) 


>  <IC50 (nM)>  (1) 
 950

>  <Kd (nM)>  (1) 


>  <EC50 (nM)>  (1) 


>  <kon (M-1-s-1)>  (1) 


>  <koff (s-1)>  (1) 


>  <pH>  (1) 


>  <Temp C>  (1) 


>  <Curation/DataSource>  (1) 
ChEMBL

>  <Article DOI>  (1) 
10.1021/jm00074a018

>  <BindingDB Entry DOI>  (1) 
10.7270/Q22Z14M0

>  <PMID>  (1) 
8230127

>  <PubChem AID>  (1) 


>  <Patent Number>  (1) 


>  <Authors>  (1) 
Bernhart, CA; Perreaut, PM; Ferrari, BP; Muneaux, YA; Assens, JL; Clement, J; Haudricourt, F; Muneaux, CF; Taillades, JE; Vignal, MA

>  <Institution>  (1) 
Sanofi Recherche

>  <Link to Ligand in BindingDB>  (1) 
http://www.bindingdb.org/bind/chemsearch/marvin/MolStructure.jsp?monomerid=50042269

>  <Link to Ligand-Target Pair in BindingDB>  (1) 
http://www.bindingdb.org/jsp/dbsearch/PrimarySearch_ki.jsp?energyterm=kJ/mole&tag=r21&monomerid=50042269&enzyme=Type-1+angiotensin+II+receptor+B&column=ki&startPg=0&Increment=50&submit=Search

>  <Ligand HET ID in PDB>  (1) 


>  <PDB ID(s) for Ligand-Target Complex>  (1) 


>  <PubChem CID of Ligand>  (1) 
44342001

>  <PubChem SID of Ligand>  (1) 
103973877

>  <ChEBI ID of Ligand>  (1) 


>  <ChEMBL ID of Ligand>  (1) 
CHEMBL114590

>  <DrugBank ID of Ligand>  (1) 


>  <IUPHAR_GRAC ID of Ligand>  (1) 


>  <KEGG ID of Ligand>  (1) 


>  <ZINC ID of Ligand>  (1) 
ZINC13833581

>  <Number of Protein Chains in Target (bigger than 1 implies a multichain complex)>  (1) 
1

>  <BindingDB Target Chain Sequence>  (1) 
MTLNSSTEDGIKRIQDDCPKAGRHNYIFVMIPTLYSIIFVVGIFGNSLVVIVIYFYMKLKTVASVFLLNLALADLCFLLTLPLWAVYTAMEYRWPFGNHLCKIASASVSFNLYASVFLLTCLSIDRYLAIVHPMKSRLRRTMLVAKVTCIIIWLMAGLASLPAVIYRNVYFIENTNITVCAFHYESQNSTLPIGLGLTKNILGFVFPFLIILTSYTLIWKALKKAYKIQKNTPRNDDIFRIIMAIVLFFFFSWVPHQIFTFLDVLIQLGIIRDCEIADIVDTAMPITICIAYFNNCLNPLFYGFLGKKFKKYFLQLLKYIPPTAKSHAGLSTKMSTLSYRPSDNMSSSAKKSASFFEVE

>  <PDB ID(s) of Target Chain>  (1) 


>  <UniProt (SwissProt) Recommended Name of Target Chain>  (1) 
Type-1 angiotensin II receptor B

>  <UniProt (SwissProt) Entry Name of Target Chain>  (1) 
AGTRB_RAT

>  <UniProt (SwissProt) Primary ID of Target Chain>  (1) 
P29089

>  <UniProt (SwissProt) Secondary ID(s) of Target Chain>  (1) 


>  <UniProt (SwissProt) Alternative ID(s) of Target Chain>  (1) 


>  <UniProt (TrEMBL) Submitted Name of Target Chain>  (1) 


>  <UniProt (TrEMBL) Entry Name of Target Chain>  (1) 


>  <UniProt (TrEMBL) Primary ID of Target Chain>  (1) 


>  <UniProt (TrEMBL) Secondary ID(s) of Target Chain>  (1) 


>  <UniProt (TrEMBL) Alternative ID(s) of Target Chain>  (1) 


$$$$
