
     RDKit          2D

 31 34  0  0  0  0  0  0  0  0999 V2000
    1.6927   -7.0060    0.0000 C   0  0  0  0  0  0  0  0  0  0  0  0
    2.1575   -6.3232    0.0000 C   0  0  0  0  0  0  0  0  0  0  0  0
    1.8935   -5.5600    0.0000 N   0  0  0  0  0  0  0  0  0  0  0  0
   -1.5951   -4.1887    0.0000 N   0  0  0  0  0  0  0  0  0  0  0  0
   -2.5074   -3.2247    0.0000 N   0  0  0  0  0  0  0  0  0  0  0  0
   -1.2050   -3.4657    0.0000 N   0  0  0  0  0  0  0  0  0  0  0  0
   -2.4041   -4.0452    0.0000 C   0  0  0  0  0  0  0  0  0  0  0  0
    0.8779   -6.9601    0.0000 N   0  0  0  0  0  0  0  0  0  0  0  0
    0.3501   -7.7117    0.0000 N   0  0  0  0  0  0  0  0  0  0  0  0
    1.1877   -8.4749    0.0000 N   0  0  0  0  0  0  0  0  0  0  0  0
    2.5476   -5.0494    0.0000 C   0  0  0  0  0  0  0  0  0  0  0  0
   -1.7844   -2.8747    0.0000 C   0  0  0  0  0  0  0  0  0  0  0  0
    1.8993   -7.8036    0.0000 N   0  0  0  0  0  0  0  0  0  0  0  0
    2.9837   -6.3002    0.0000 C   0  0  0  0  0  0  0  0  0  0  0  0
    3.2247   -5.5314    0.0000 C   0  0  0  0  0  0  0  0  0  0  0  0
    1.0902   -5.4109    0.0000 C   0  0  0  0  0  0  0  0  0  0  0  0
   -1.3255   -4.9633    0.0000 C   0  0  0  0  0  0  0  0  0  0  0  0
    2.5362   -4.2231    0.0000 F   0  0  0  0  0  0  0  0  0  0  0  0
    0.8148   -4.6477    0.0000 C   0  0  0  0  0  0  0  0  0  0  0  0
    0.5566   -6.0306    0.0000 C   0  0  0  0  0  0  0  0  0  0  0  0
   -0.5336   -5.1469    0.0000 C   0  0  0  0  0  0  0  0  0  0  0  0
    0.0230   -4.4986    0.0000 C   0  0  0  0  0  0  0  0  0  0  0  0
   -0.2410   -5.8929    0.0000 C   0  0  0  0  0  0  0  0  0  0  0  0
   -2.9952   -4.6133    0.0000 C   0  0  0  0  0  0  0  0  0  0  0  0
   -1.6869   -2.0542    0.0000 C   0  0  0  0  0  0  0  0  0  0  0  0
   -3.7870   -4.3781    0.0000 C   0  0  0  0  0  0  0  0  0  0  0  0
   -0.9295   -1.7214    0.0000 C   0  0  0  0  0  0  0  0  0  0  0  0
   -0.8377   -0.9009    0.0000 C   0  0  0  0  0  0  0  0  0  0  0  0
   -4.3895   -4.9461    0.0000 C   0  0  0  0  0  0  0  0  0  0  0  0
   -0.0803   -0.5738    0.0000 C   0  0  0  0  0  0  0  0  0  0  0  0
   -5.1813   -4.7165    0.0000 C   0  0  0  0  0  0  0  0  0  0  0  0
  2  1  1  0
  3  2  1  0
  4 17  1  0
  5  7  2  0
  6  4  1  0
  7  4  1  0
  8  1  1  0
  9  8  1  0
 10 13  1  0
 11  3  1  0
 12  6  2  0
 13  1  2  0
 14  2  2  0
 15 14  1  0
 16  3  1  0
 17 21  1  0
 18 11  1  0
 19 16  2  0
 20 16  1  0
 21 23  1  0
 22 19  1  0
 23 20  2  0
 24  7  1  0
 25 12  1  0
 26 24  1  0
 27 25  1  0
 28 27  1  0
 29 26  1  0
 30 28  1  0
 31 29  1  0
 10  9  2  0
 11 15  2  0
 21 22  2  0
  5 12  1  0
M  END
>  <From>  (1) 
www.bindingDB.org

>  <BindingDB Reactant_set_id>  (1) 
50074682

>  <Ligand InChI>  (1) 
InChI=1S/C22H27FN8/c1-3-5-7-20-24-21(8-6-4-2)30(27-20)15-16-9-11-17(12-10-16)31-18(13-14-19(31)23)22-25-28-29-26-22/h9-14H,3-8,15H2,1-2H3,(H,25,26,28,29)

>  <Ligand InChI Key>  (1) 
VDZZNCDKBGJLLO-UHFFFAOYSA-N

>  <BindingDB MonomerID>  (1) 
50046087

>  <BindingDB Ligand Name>  (1) 
CHEMBL12693::{2-Butyl-5-chloro-3-[2'-(2H-tetrazol-5-yl)-biphenyl-4-ylmethyl]-3H-imidazol-4-yl}-methanol

>  <Target Name>  (1) 
Type-1 angiotensin II receptor B

>  <Target Source Organism According to Curator or DataSource>  (1) 
Rattus

>  <Ki (nM)>  (1) 


>  <IC50 (nM)>  (1) 
 72

>  <Kd (nM)>  (1) 


>  <EC50 (nM)>  (1) 


>  <kon (M-1-s-1)>  (1) 


>  <koff (s-1)>  (1) 


>  <pH>  (1) 


>  <Temp C>  (1) 


>  <Curation/DataSource>  (1) 
ChEMBL

>  <Article DOI>  (1) 
10.1021/jm00053a013

>  <BindingDB Entry DOI>  (1) 
10.7270/Q2KH0MDW

>  <PMID>  (1) 
8421274

>  <PubChem AID>  (1) 


>  <Patent Number>  (1) 


>  <Authors>  (1) 
Bovy, PR; Reitz, DB; Collins, JT; Chamberlain, TS; Olins, GM; Corpus, VM; McMahon, EG; Palomo, MA; Koepke, JP; Smits, GJ

>  <Institution>  (1) 
Searle & Company

>  <Link to Ligand in BindingDB>  (1) 
http://www.bindingdb.org/bind/chemsearch/marvin/MolStructure.jsp?monomerid=50046087

>  <Link to Ligand-Target Pair in BindingDB>  (1) 
http://www.bindingdb.org/jsp/dbsearch/PrimarySearch_ki.jsp?energyterm=kJ/mole&tag=r21&monomerid=50046087&enzyme=Type-1+angiotensin+II+receptor+B&column=ki&startPg=0&Increment=50&submit=Search

>  <Ligand HET ID in PDB>  (1) 


>  <PDB ID(s) for Ligand-Target Complex>  (1) 


>  <PubChem CID of Ligand>  (1) 
10320063

>  <PubChem SID of Ligand>  (1) 
103976958

>  <ChEBI ID of Ligand>  (1) 


>  <ChEMBL ID of Ligand>  (1) 
CHEMBL12693

>  <DrugBank ID of Ligand>  (1) 


>  <IUPHAR_GRAC ID of Ligand>  (1) 


>  <KEGG ID of Ligand>  (1) 


>  <ZINC ID of Ligand>  (1) 
ZINC01534284

>  <Number of Protein Chains in Target (bigger than 1 implies a multichain complex)>  (1) 
1

>  <BindingDB Target Chain Sequence>  (1) 
MTLNSSTEDGIKRIQDDCPKAGRHNYIFVMIPTLYSIIFVVGIFGNSLVVIVIYFYMKLKTVASVFLLNLALADLCFLLTLPLWAVYTAMEYRWPFGNHLCKIASASVSFNLYASVFLLTCLSIDRYLAIVHPMKSRLRRTMLVAKVTCIIIWLMAGLASLPAVIYRNVYFIENTNITVCAFHYESQNSTLPIGLGLTKNILGFVFPFLIILTSYTLIWKALKKAYKIQKNTPRNDDIFRIIMAIVLFFFFSWVPHQIFTFLDVLIQLGIIRDCEIADIVDTAMPITICIAYFNNCLNPLFYGFLGKKFKKYFLQLLKYIPPTAKSHAGLSTKMSTLSYRPSDNMSSSAKKSASFFEVE

>  <PDB ID(s) of Target Chain>  (1) 


>  <UniProt (SwissProt) Recommended Name of Target Chain>  (1) 
Type-1 angiotensin II receptor B

>  <UniProt (SwissProt) Entry Name of Target Chain>  (1) 
AGTRB_RAT

>  <UniProt (SwissProt) Primary ID of Target Chain>  (1) 
P29089

>  <UniProt (SwissProt) Secondary ID(s) of Target Chain>  (1) 


>  <UniProt (SwissProt) Alternative ID(s) of Target Chain>  (1) 


>  <UniProt (TrEMBL) Submitted Name of Target Chain>  (1) 


>  <UniProt (TrEMBL) Entry Name of Target Chain>  (1) 


>  <UniProt (TrEMBL) Primary ID of Target Chain>  (1) 


>  <UniProt (TrEMBL) Secondary ID(s) of Target Chain>  (1) 


>  <UniProt (TrEMBL) Alternative ID(s) of Target Chain>  (1) 


$$$$
