
     RDKit          2D

 33 37  0  0  0  0  0  0  0  0999 V2000
    7.9746   -8.7983    0.0000 N   0  0  0  0  0  0  0  0  0  0  0  0
    8.6878   -8.3848    0.0000 C   0  0  0  0  0  0  0  0  0  0  0  0
    8.6845   -7.5531    0.0000 C   0  0  0  0  0  0  0  0  0  0  0  0
    7.9725   -7.1445    0.0000 C   0  0  0  0  0  0  0  0  0  0  0  0
    7.2583   -8.3853    0.0000 C   0  0  0  0  0  0  0  0  0  0  0  0
    7.2551   -7.5605    0.0000 C   0  0  0  0  0  0  0  0  0  0  0  0
    6.4697   -7.3085    0.0000 N   0  0  0  0  0  0  0  0  0  0  0  0
    5.9873   -7.9777    0.0000 C   0  0  0  0  0  0  0  0  0  0  0  0
    6.4749   -8.6431    0.0000 N   0  0  0  0  0  0  0  0  0  0  0  0
    5.1622   -7.9809    0.0000 C   0  0  0  0  0  0  0  0  0  0  0  0
    4.7469   -7.2678    0.0000 C   0  0  0  0  0  0  0  0  0  0  0  0
    7.9706   -6.3193    0.0000 C   0  0  0  0  0  0  0  0  0  0  0  0
    9.4036   -8.7953    0.0000 C   0  0  0  0  0  0  0  0  0  0  0  0
    6.4653   -9.4650    0.0000 C   0  0  0  0  0  0  0  0  0  0  0  0
    7.1751   -9.8858    0.0000 C   0  0  0  0  0  0  0  0  0  0  0  0
    7.1618  -10.7090    0.0000 C   0  0  0  0  0  0  0  0  0  0  0  0
    7.8708  -11.1298    0.0000 C   0  0  0  0  0  0  0  0  0  0  0  0
    7.8885   -9.4791    0.0000 C   0  0  0  0  0  0  0  0  0  0  0  0
    8.5981   -9.8960    0.0000 C   0  0  0  0  0  0  0  0  0  0  0  0
    8.5942  -10.7210    0.0000 C   0  0  0  0  0  0  0  0  0  0  0  0
    9.3776  -10.9796    0.0000 N   0  0  0  0  0  0  0  0  0  0  0  0
    9.8657  -10.3144    0.0000 C   0  0  0  0  0  0  0  0  0  0  0  0
    9.3838   -9.6449    0.0000 C   0  0  0  0  0  0  0  0  0  0  0  0
    9.3679  -11.8045    0.0000 C   0  0  0  0  0  0  0  0  0  0  0  0
   10.0776  -12.2255    0.0000 C   0  0  0  0  0  0  0  0  0  0  0  0
   10.0642  -13.0486    0.0000 C   0  0  0  0  0  0  0  0  0  0  0  0
   10.7731  -13.4694    0.0000 C   0  0  0  0  0  0  0  0  0  0  0  0
   11.4935  -13.0653    0.0000 C   0  0  0  0  0  0  0  0  0  0  0  0
   11.5006  -12.2359    0.0000 C   0  0  0  0  0  0  0  0  0  0  0  0
   10.7911  -11.8187    0.0000 C   0  0  0  0  0  0  0  0  0  0  0  0
    9.3438  -13.4510    0.0000 C   0  0  0  0  0  0  0  0  0  0  0  0
    8.6352  -13.0282    0.0000 O   0  0  0  0  0  0  0  0  0  0  0  0
    9.3322  -14.2761    0.0000 O   0  0  0  0  0  0  0  0  0  0  0  0
 15 16  2  0
  6  7  1  0
 16 17  1  0
 17 20  2  0
  7  8  2  0
 19 18  2  0
 18 15  1  0
 19 20  1  0
  8  9  1  0
  9  5  1  0
  4  6  1  0
  8 10  1  0
  5  6  2  0
 20 21  1  0
 21 22  1  0
 22 23  2  0
 23 19  1  0
 10 11  1  0
 21 24  1  0
  1  2  2  0
 24 25  1  0
  4 12  1  0
 25 26  2  0
  5  1  1  0
 26 27  1  0
  2 13  1  0
 27 28  2  0
  2  3  1  0
 28 29  1  0
  9 14  1  0
 29 30  2  0
 30 25  1  0
 26 31  1  0
 14 15  1  0
 31 32  1  0
  3  4  2  0
 31 33  2  0
M  END
>  <From>  (1) 
www.bindingDB.org

>  <BindingDB Reactant_set_id>  (1) 
50062172

>  <Ligand InChI>  (1) 
InChI=1S/C27H26N4O2/c1-4-24-29-25-17(2)13-18(3)28-26(25)31(24)15-19-9-10-23-20(14-19)11-12-30(23)16-21-7-5-6-8-22(21)27(32)33/h5-14H,4,15-16H2,1-3H3,(H,32,33)

>  <Ligand InChI Key>  (1) 
WHKFJUXFEKLJTL-UHFFFAOYSA-N

>  <BindingDB MonomerID>  (1) 
50043447

>  <BindingDB Ligand Name>  (1) 
2-[5-(2-Ethyl-5,7-dimethyl-3H-imidazo[4,5-b]pyridin-4-ylmethyl)-indol-1-ylmethyl]-benzoic acid::CHEMBL334622

>  <Target Name>  (1) 
Type-1 angiotensin II receptor

>  <Target Source Organism According to Curator or DataSource>  (1) 
Oryctolagus cuniculus

>  <Ki (nM)>  (1) 


>  <IC50 (nM)>  (1) 
 230

>  <Kd (nM)>  (1) 


>  <EC50 (nM)>  (1) 


>  <kon (M-1-s-1)>  (1) 


>  <koff (s-1)>  (1) 


>  <pH>  (1) 


>  <Temp C>  (1) 


>  <Curation/DataSource>  (1) 
ChEMBL

>  <Article DOI>  (1) 
10.1021/jm00078a013

>  <BindingDB Entry DOI>  (1) 
10.7270/Q26M35X0

>  <PMID>  (1) 
8277505

>  <PubChem AID>  (1) 


>  <Patent Number>  (1) 


>  <Authors>  (1) 
Dhanoa, DS; Bagley, SW; Chang, RS; Lotti, VJ; Chen, TB; Kivlighn, SD; Zingaro, GJ; Siegl, PK; Patchett, AA; Greenlee, WJ

>  <Institution>  (1) 
Merck Research Laboratories

>  <Link to Ligand in BindingDB>  (1) 
http://www.bindingdb.org/bind/chemsearch/marvin/MolStructure.jsp?monomerid=50043447

>  <Link to Ligand-Target Pair in BindingDB>  (1) 
http://www.bindingdb.org/jsp/dbsearch/PrimarySearch_ki.jsp?energyterm=kJ/mole&tag=r21&monomerid=50043447&enzyme=Type-1+angiotensin+II+receptor&column=ki&startPg=0&Increment=50&submit=Search

>  <Ligand HET ID in PDB>  (1) 


>  <PDB ID(s) for Ligand-Target Complex>  (1) 


>  <PubChem CID of Ligand>  (1) 
10048776

>  <PubChem SID of Ligand>  (1) 
103974875

>  <ChEBI ID of Ligand>  (1) 


>  <ChEMBL ID of Ligand>  (1) 
CHEMBL334622

>  <DrugBank ID of Ligand>  (1) 


>  <IUPHAR_GRAC ID of Ligand>  (1) 


>  <KEGG ID of Ligand>  (1) 


>  <ZINC ID of Ligand>  (1) 
ZINC13732384

>  <Number of Protein Chains in Target (bigger than 1 implies a multichain complex)>  (1) 
1

>  <BindingDB Target Chain Sequence>  (1) 
MMLNSSTEDGIKRIQDDCPKAGRHNYIFVMIPTLYSIIFVVGIFGNSLAVIVIYFYMKLKTVASVFLLNLALADLCFLLTLPLWAVYTAMEYRWPFGNYLCKIASASVSFNLYASVFLLTCLSIDRYLAIVHPMKSRLRRTMLVAKVTCIIIWLLAGLASLPAIIHRNVFFIENTNITVCAFHYESQNSTLPIGLGLTKNILGFLFPFLIILTSYTLIWKALKKAYEIQKNKPRNDDIFKIIMAIVLFFFFSWVPHQIFTFLDVLIQLGVIHDCRIADIVDTAMPITICIAYFNNCLNPLFYGFLGKKFKKYFLQLLKYIPPKAKSHSNLSTKMSTLSYRPSDNVSSSSKKPVPCFEVE

>  <PDB ID(s) of Target Chain>  (1) 
6DO1,6OS0,6OS1,6OS2

>  <UniProt (SwissProt) Recommended Name of Target Chain>  (1) 
Type-1 angiotensin II receptor

>  <UniProt (SwissProt) Entry Name of Target Chain>  (1) 
AGTR1_RABIT

>  <UniProt (SwissProt) Primary ID of Target Chain>  (1) 
P34976

>  <UniProt (SwissProt) Secondary ID(s) of Target Chain>  (1) 


>  <UniProt (SwissProt) Alternative ID(s) of Target Chain>  (1) 


>  <UniProt (TrEMBL) Submitted Name of Target Chain>  (1) 


>  <UniProt (TrEMBL) Entry Name of Target Chain>  (1) 


>  <UniProt (TrEMBL) Primary ID of Target Chain>  (1) 


>  <UniProt (TrEMBL) Secondary ID(s) of Target Chain>  (1) 


>  <UniProt (TrEMBL) Alternative ID(s) of Target Chain>  (1) 


$$$$
