
     RDKit          2D

 32 36  0  0  0  0  0  0  0  0999 V2000
   10.5536  -22.0748    0.0000 C   0  0  0  0  0  0  0  0  0  0  0  0
    9.8369  -22.4853    0.0000 C   0  0  0  0  0  0  0  0  0  0  0  0
    9.8342  -23.3117    0.0000 C   0  0  0  0  0  0  0  0  0  0  0  0
   10.5504  -23.7261    0.0000 C   0  0  0  0  0  0  0  0  0  0  0  0
   11.2709  -23.3123    0.0000 C   0  0  0  0  0  0  0  0  0  0  0  0
   11.2702  -22.4873    0.0000 C   0  0  0  0  0  0  0  0  0  0  0  0
   10.5494  -24.5487    0.0000 C   0  0  0  0  0  0  0  0  0  0  0  0
    9.8301  -24.9626    0.0000 C   0  0  0  0  0  0  0  0  0  0  0  0
    9.8285  -25.7890    0.0000 C   0  0  0  0  0  0  0  0  0  0  0  0
   10.5453  -26.2025    0.0000 C   0  0  0  0  0  0  0  0  0  0  0  0
   11.2652  -25.7877    0.0000 C   0  0  0  0  0  0  0  0  0  0  0  0
   11.2634  -24.9627    0.0000 C   0  0  0  0  0  0  0  0  0  0  0  0
   11.9797  -24.5462    0.0000 C   0  0  0  0  0  0  0  0  0  0  0  0
   12.7338  -24.8824    0.0000 N   0  0  0  0  0  0  0  0  0  0  0  0
   13.2880  -24.2660    0.0000 N   0  0  0  0  0  0  0  0  0  0  0  0
   12.0625  -23.7216    0.0000 N   0  0  0  0  0  0  0  0  0  0  0  0
   12.7932  -23.5401    0.0000 N   0  0  0  0  0  0  0  0  0  0  0  0
   10.5545  -21.2518    0.0000 C   0  0  0  0  0  0  0  0  0  0  0  0
   11.2677  -20.8411    0.0000 O   0  0  0  0  0  0  0  0  0  0  0  0
   11.2686  -20.0181    0.0000 C   0  0  0  0  0  0  0  0  0  0  0  0
   10.8556  -18.7475    0.0000 N   0  0  0  0  0  0  0  0  0  0  0  0
   10.6005  -19.5300    0.0000 N   0  0  0  0  0  0  0  0  0  0  0  0
   11.6786  -18.7484    0.0000 C   0  0  0  0  0  0  0  0  0  0  0  0
   11.9305  -19.5304    0.0000 C   0  0  0  0  0  0  0  0  0  0  0  0
   12.7321  -19.7018    0.0000 C   0  0  0  0  0  0  0  0  0  0  0  0
   13.2825  -19.0922    0.0000 C   0  0  0  0  0  0  0  0  0  0  0  0
   13.0258  -18.3085    0.0000 C   0  0  0  0  0  0  0  0  0  0  0  0
   12.2248  -18.1408    0.0000 N   0  0  0  0  0  0  0  0  0  0  0  0
   10.3724  -18.0812    0.0000 C   0  0  0  0  0  0  0  0  0  0  0  0
   10.7079  -17.3297    0.0000 C   0  0  0  0  0  0  0  0  0  0  0  0
   10.2248  -16.6635    0.0000 C   0  0  0  0  0  0  0  0  0  0  0  0
   10.5603  -15.9119    0.0000 C   0  0  0  0  0  0  0  0  0  0  0  0
 14 15  1  0
 15 17  2  0
 17 16  1  0
 16 13  1  0
  8  9  2  0
  1 18  1  0
  4  5  2  0
 18 19  1  0
  9 10  1  0
 19 20  1  0
 20 24  1  0
  2  3  2  0
 10 11  2  0
 23 21  1  0
 21 22  1  0
 22 20  2  0
  5  6  1  0
 11 12  1  0
 23 24  2  0
 12  7  2  0
 24 25  1  0
  4  7  1  0
 25 26  2  0
  6  1  2  0
 26 27  1  0
 12 13  1  0
 27 28  2  0
 28 23  1  0
 13 14  2  0
 21 29  1  0
  1  2  1  0
 29 30  1  0
  3  4  1  0
 30 31  1  0
  7  8  1  0
 31 32  1  0
M  END
>  <From>  (1) 
www.bindingDB.org

>  <BindingDB Reactant_set_id>  (1) 
50867914

>  <Ligand InChI>  (1) 
InChI=1S/C24H23N7O/c1-2-3-15-31-23-21(9-6-14-25-23)24(28-31)32-16-17-10-12-18(13-11-17)19-7-4-5-8-20(19)22-26-29-30-27-22/h4-14H,2-3,15-16H2,1H3,(H,26,27,29,30)

>  <Ligand InChI Key>  (1) 
NLLLHDYGVUXTQW-UHFFFAOYSA-N

>  <BindingDB MonomerID>  (1) 
50376904

>  <BindingDB Ligand Name>  (1) 
CHEMBL409722

>  <Target Name>  (1) 
Type-1 angiotensin II receptor A

>  <Target Source Organism According to Curator or DataSource>  (1) 
Rattus

>  <Ki (nM)>  (1) 


>  <IC50 (nM)>  (1) 
 254

>  <Kd (nM)>  (1) 


>  <EC50 (nM)>  (1) 


>  <kon (M-1-s-1)>  (1) 


>  <koff (s-1)>  (1) 


>  <pH>  (1) 


>  <Temp C>  (1) 


>  <Curation/DataSource>  (1) 
ChEMBL

>  <Article DOI>  (1) 
10.1021/jm7011563

>  <BindingDB Entry DOI>  (1) 
10.7270/Q20P10X0

>  <PMID>  (1) 
18318468

>  <PubChem AID>  (1) 


>  <Patent Number>  (1) 


>  <Authors>  (1) 
Cappelli, A; Nannicini, C; Gallelli, A; Giuliani, G; Valenti, S; Mohr, Gl; Anzini, M; Mennuni, L; Ferrari, F; Caselli, G; Giordani, A; Peris, W; Makovec, F; Giorgi, G; Vomero, S

>  <Institution>  (1) 
Universit&#163; di Siena

>  <Link to Ligand in BindingDB>  (1) 
http://www.bindingdb.org/bind/chemsearch/marvin/MolStructure.jsp?monomerid=50376904

>  <Link to Ligand-Target Pair in BindingDB>  (1) 
http://www.bindingdb.org/jsp/dbsearch/PrimarySearch_ki.jsp?energyterm=kJ/mole&tag=r21&monomerid=50376904&enzyme=Type-1+angiotensin+II+receptor+A&column=ki&startPg=0&Increment=50&submit=Search

>  <Ligand HET ID in PDB>  (1) 


>  <PDB ID(s) for Ligand-Target Complex>  (1) 


>  <PubChem CID of Ligand>  (1) 
24829094

>  <PubChem SID of Ligand>  (1) 
160855987

>  <ChEBI ID of Ligand>  (1) 


>  <ChEMBL ID of Ligand>  (1) 
CHEMBL409722

>  <DrugBank ID of Ligand>  (1) 


>  <IUPHAR_GRAC ID of Ligand>  (1) 


>  <KEGG ID of Ligand>  (1) 


>  <ZINC ID of Ligand>  (1) 
ZINC29052385

>  <Number of Protein Chains in Target (bigger than 1 implies a multichain complex)>  (1) 
1

>  <BindingDB Target Chain Sequence>  (1) 
MALNSSAEDGIKRIQDDCPKAGRHSYIFVMIPTLYSIIFVVGIFGNSLVVIVIYFYMKLKTVASVFLLNLALADLCFLLTLPLWAVYTAMEYRWPFGNHLCKIASASVSFNLYASVFLLTCLSIDRYLAIVHPMKSRLRRTMLVAKVTCIIIWLMAGLASLPAVIHRNVYFIENTNITVCAFHYESRNSTLPIGLGLTKNILGFLFPFLIILTSYTLIWKALKKAYEIQKNKPRNDDIFRIIMAIVLFFFFSWVPHQIFTFLDVLIQLGVIHDCKISDIVDTAMPITICIAYFNNCLNPLFYGFLGKKFKKYFLQLLKYIPPKAKSHSSLSTKMSTLSYRPSDNMSSSAKKPASCFEVE

>  <PDB ID(s) of Target Chain>  (1) 


>  <UniProt (SwissProt) Recommended Name of Target Chain>  (1) 
Type-1 angiotensin II receptor A

>  <UniProt (SwissProt) Entry Name of Target Chain>  (1) 
AGTRA_RAT

>  <UniProt (SwissProt) Primary ID of Target Chain>  (1) 
P25095

>  <UniProt (SwissProt) Secondary ID(s) of Target Chain>  (1) 
Q9QVS5

>  <UniProt (SwissProt) Alternative ID(s) of Target Chain>  (1) 


>  <UniProt (TrEMBL) Submitted Name of Target Chain>  (1) 


>  <UniProt (TrEMBL) Entry Name of Target Chain>  (1) 


>  <UniProt (TrEMBL) Primary ID of Target Chain>  (1) 


>  <UniProt (TrEMBL) Secondary ID(s) of Target Chain>  (1) 


>  <UniProt (TrEMBL) Alternative ID(s) of Target Chain>  (1) 


$$$$
