
     RDKit          2D

 32 36  0  0  0  0  0  0  0  0999 V2000
   -2.2044  -18.7805    0.0000 C   0  0  0  0  0  0  0  0  0  0  0  0
   -2.2068  -19.6076    0.0000 C   0  0  0  0  0  0  0  0  0  0  0  0
   -2.9234  -20.0181    0.0000 C   0  0  0  0  0  0  0  0  0  0  0  0
   -2.9261  -20.8444    0.0000 C   0  0  0  0  0  0  0  0  0  0  0  0
   -2.2100  -21.2587    0.0000 C   0  0  0  0  0  0  0  0  0  0  0  0
   -1.4896  -20.8450    0.0000 C   0  0  0  0  0  0  0  0  0  0  0  0
   -1.4904  -20.0200    0.0000 C   0  0  0  0  0  0  0  0  0  0  0  0
   -2.2111  -22.0812    0.0000 C   0  0  0  0  0  0  0  0  0  0  0  0
   -2.9302  -22.4951    0.0000 C   0  0  0  0  0  0  0  0  0  0  0  0
   -2.9318  -23.3214    0.0000 C   0  0  0  0  0  0  0  0  0  0  0  0
   -2.2152  -23.7348    0.0000 C   0  0  0  0  0  0  0  0  0  0  0  0
   -1.4953  -23.3201    0.0000 C   0  0  0  0  0  0  0  0  0  0  0  0
   -1.4972  -22.4951    0.0000 C   0  0  0  0  0  0  0  0  0  0  0  0
   -0.7808  -22.0787    0.0000 C   0  0  0  0  0  0  0  0  0  0  0  0
   -0.0269  -22.4149    0.0000 N   0  0  0  0  0  0  0  0  0  0  0  0
    0.5272  -21.7986    0.0000 N   0  0  0  0  0  0  0  0  0  0  0  0
   -0.6981  -21.2542    0.0000 N   0  0  0  0  0  0  0  0  0  0  0  0
    0.0324  -21.0726    0.0000 N   0  0  0  0  0  0  0  0  0  0  0  0
   -1.4905  -18.3712    0.0000 N   0  0  0  0  0  0  0  0  0  0  0  0
   -0.5935  -17.3841    0.0000 C   0  0  0  0  0  0  0  0  0  0  0  0
   -1.3988  -17.5530    0.0000 N   0  0  0  0  0  0  0  0  0  0  0  0
   -0.2566  -16.6333    0.0000 O   0  0  0  0  0  0  0  0  0  0  0  0
   -0.1841  -18.0980    0.0000 C   0  0  0  0  0  0  0  0  0  0  0  0
   -0.7356  -18.7044    0.0000 C   0  0  0  0  0  0  0  0  0  0  0  0
   -0.4858  -19.4832    0.0000 C   0  0  0  0  0  0  0  0  0  0  0  0
    0.3151  -19.6566    0.0000 C   0  0  0  0  0  0  0  0  0  0  0  0
    0.8657  -19.0452    0.0000 C   0  0  0  0  0  0  0  0  0  0  0  0
    0.6130  -18.2688    0.0000 C   0  0  0  0  0  0  0  0  0  0  0  0
   -2.0078  -16.9994    0.0000 C   0  0  0  0  0  0  0  0  0  0  0  0
   -2.7916  -17.2499    0.0000 C   0  0  0  0  0  0  0  0  0  0  0  0
   -3.4004  -16.6964    0.0000 C   0  0  0  0  0  0  0  0  0  0  0  0
   -4.1843  -16.9469    0.0000 C   0  0  0  0  0  0  0  0  0  0  0  0
  3  4  2  0
 15 16  1  0
 16 18  2  0
 18 17  1  0
 17 14  2  0
  8  9  2  0
  4  5  1  0
  1 19  1  0
 19 24  1  0
  9 10  1  0
  2  3  1  0
 23 20  1  0
 20 21  1  0
 21 19  1  0
 10 11  2  0
 20 22  2  0
  5  6  2  0
 11 12  1  0
 23 24  2  0
  1  2  1  0
 24 25  1  0
 12 13  2  0
 25 26  2  0
 13  8  1  0
 26 27  1  0
  5  8  1  0
 27 28  2  0
 28 23  1  0
  6  7  1  0
 21 29  1  0
 13 14  1  0
 29 30  1  0
 14 15  1  0
 30 31  1  0
  7  2  2  0
 31 32  1  0
M  END
>  <From>  (1) 
www.bindingDB.org

>  <BindingDB Reactant_set_id>  (1) 
50867916

>  <Ligand InChI>  (1) 
InChI=1S/C25H24N6O/c1-2-3-16-30-25(32)22-10-6-7-11-23(22)31(30)17-18-12-14-19(15-13-18)20-8-4-5-9-21(20)24-26-28-29-27-24/h4-15H,2-3,16-17H2,1H3,(H,26,27,28,29)

>  <Ligand InChI Key>  (1) 
KNOABAGUWFLMAN-UHFFFAOYSA-N

>  <BindingDB MonomerID>  (1) 
50376906

>  <BindingDB Ligand Name>  (1) 
CHEMBL410125

>  <Target Name>  (1) 
Type-1 angiotensin II receptor A

>  <Target Source Organism According to Curator or DataSource>  (1) 
Rattus

>  <Ki (nM)>  (1) 


>  <IC50 (nM)>  (1) 
 598

>  <Kd (nM)>  (1) 


>  <EC50 (nM)>  (1) 


>  <kon (M-1-s-1)>  (1) 


>  <koff (s-1)>  (1) 


>  <pH>  (1) 


>  <Temp C>  (1) 


>  <Curation/DataSource>  (1) 
ChEMBL

>  <Article DOI>  (1) 
10.1021/jm7011563

>  <BindingDB Entry DOI>  (1) 
10.7270/Q20P10X0

>  <PMID>  (1) 
18318468

>  <PubChem AID>  (1) 


>  <Patent Number>  (1) 


>  <Authors>  (1) 
Cappelli, A; Nannicini, C; Gallelli, A; Giuliani, G; Valenti, S; Mohr, Gl; Anzini, M; Mennuni, L; Ferrari, F; Caselli, G; Giordani, A; Peris, W; Makovec, F; Giorgi, G; Vomero, S

>  <Institution>  (1) 
Universit&#163; di Siena

>  <Link to Ligand in BindingDB>  (1) 
http://www.bindingdb.org/bind/chemsearch/marvin/MolStructure.jsp?monomerid=50376906

>  <Link to Ligand-Target Pair in BindingDB>  (1) 
http://www.bindingdb.org/jsp/dbsearch/PrimarySearch_ki.jsp?energyterm=kJ/mole&tag=r21&monomerid=50376906&enzyme=Type-1+angiotensin+II+receptor+A&column=ki&startPg=0&Increment=50&submit=Search

>  <Ligand HET ID in PDB>  (1) 


>  <PDB ID(s) for Ligand-Target Complex>  (1) 


>  <PubChem CID of Ligand>  (1) 
24828038

>  <PubChem SID of Ligand>  (1) 
160855989

>  <ChEBI ID of Ligand>  (1) 


>  <ChEMBL ID of Ligand>  (1) 
CHEMBL410125

>  <DrugBank ID of Ligand>  (1) 


>  <IUPHAR_GRAC ID of Ligand>  (1) 


>  <KEGG ID of Ligand>  (1) 


>  <ZINC ID of Ligand>  (1) 
ZINC29050674

>  <Number of Protein Chains in Target (bigger than 1 implies a multichain complex)>  (1) 
1

>  <BindingDB Target Chain Sequence>  (1) 
MALNSSAEDGIKRIQDDCPKAGRHSYIFVMIPTLYSIIFVVGIFGNSLVVIVIYFYMKLKTVASVFLLNLALADLCFLLTLPLWAVYTAMEYRWPFGNHLCKIASASVSFNLYASVFLLTCLSIDRYLAIVHPMKSRLRRTMLVAKVTCIIIWLMAGLASLPAVIHRNVYFIENTNITVCAFHYESRNSTLPIGLGLTKNILGFLFPFLIILTSYTLIWKALKKAYEIQKNKPRNDDIFRIIMAIVLFFFFSWVPHQIFTFLDVLIQLGVIHDCKISDIVDTAMPITICIAYFNNCLNPLFYGFLGKKFKKYFLQLLKYIPPKAKSHSSLSTKMSTLSYRPSDNMSSSAKKPASCFEVE

>  <PDB ID(s) of Target Chain>  (1) 


>  <UniProt (SwissProt) Recommended Name of Target Chain>  (1) 
Type-1 angiotensin II receptor A

>  <UniProt (SwissProt) Entry Name of Target Chain>  (1) 
AGTRA_RAT

>  <UniProt (SwissProt) Primary ID of Target Chain>  (1) 
P25095

>  <UniProt (SwissProt) Secondary ID(s) of Target Chain>  (1) 
Q9QVS5

>  <UniProt (SwissProt) Alternative ID(s) of Target Chain>  (1) 


>  <UniProt (TrEMBL) Submitted Name of Target Chain>  (1) 


>  <UniProt (TrEMBL) Entry Name of Target Chain>  (1) 


>  <UniProt (TrEMBL) Primary ID of Target Chain>  (1) 


>  <UniProt (TrEMBL) Secondary ID(s) of Target Chain>  (1) 


>  <UniProt (TrEMBL) Alternative ID(s) of Target Chain>  (1) 


$$$$
