
     RDKit          2D

 31 34  0  0  0  0  0  0  0  0999 V2000
   -4.0317   -0.7359    0.0000 C   0  0  0  0  0  0  0  0  0  0  0  0
   -5.4979   -1.0528    0.0000 N   0  0  0  0  0  0  0  0  0  0  0  0
   -6.2524    0.2436    0.0000 C   0  0  0  0  0  0  0  0  0  0  0  0
   -5.2526    1.3618    0.0000 C   0  0  0  0  0  0  0  0  0  0  0  0
   -3.8990    0.7455    0.0000 N   0  0  0  0  0  0  0  0  0  0  0  0
   -5.5549    2.8291    0.0000 C   0  0  0  0  0  0  0  0  0  0  0  0
   -4.6585    3.6270    0.0000 O   0  0  0  0  0  0  0  0  0  0  0  0
   -2.6003    1.4977    0.0000 C   0  0  0  0  0  0  0  0  0  0  0  0
    1.2990   -0.7500    0.0000 C   0  0  0  0  0  0  0  0  0  0  0  0
    1.2990    0.7500    0.0000 C   0  0  0  0  0  0  0  0  0  0  0  0
    0.0000    1.5000    0.0000 C   0  0  0  0  0  0  0  0  0  0  0  0
   -1.2990    0.7500    0.0000 C   0  0  0  0  0  0  0  0  0  0  0  0
   -1.2990   -0.7500    0.0000 C   0  0  0  0  0  0  0  0  0  0  0  0
    0.0000   -1.5000    0.0000 C   0  0  0  0  0  0  0  0  0  0  0  0
    2.5987   -1.5004    0.0000 C   0  0  0  0  0  0  0  0  0  0  0  0
    3.8991   -0.7525    0.0000 C   0  0  0  0  0  0  0  0  0  0  0  0
    5.1969   -1.5045    0.0000 C   0  0  0  0  0  0  0  0  0  0  0  0
    5.1945   -3.0045    0.0000 C   0  0  0  0  0  0  0  0  0  0  0  0
    3.8943   -3.7525    0.0000 C   0  0  0  0  0  0  0  0  0  0  0  0
    2.5965   -3.0004    0.0000 C   0  0  0  0  0  0  0  0  0  0  0  0
    3.1588    3.0371    0.0000 O   0  0  0  0  0  0  0  0  0  0  0  0
    2.6907    1.6120    0.0000 N   0  0  0  0  0  0  0  0  0  0  0  0
    3.9015    0.7483    0.0000 C   0  0  0  0  0  0  0  0  0  0  0  0
    5.1177    1.6042    0.0000 N   0  0  0  0  0  0  0  0  0  0  0  0
    4.6588    3.0323    0.0000 C   0  0  0  0  0  0  0  0  0  0  0  0
    5.3672    4.0009    0.0000 O   0  0  0  0  0  0  0  0  0  0  0  0
   -7.4462    0.3649    0.0000 Cl  0  0  0  0  0  0  0  0  0  0  0  0
   -2.9093   -1.7282    0.0000 C   0  0  0  0  0  0  0  0  0  0  0  0
   -3.2070   -3.1992    0.0000 C   0  0  0  0  0  0  0  0  0  0  0  0
   -2.0826   -4.1933    0.0000 C   0  0  0  0  0  0  0  0  0  0  0  0
   -2.3206   -5.3694    0.0000 C   0  0  0  0  0  0  0  0  0  0  0  0
  1  2  2  0
  2  3  1  0
  3  4  2  0
  4  5  1  0
  1  5  1  0
  6  7  2  0
  4  6  1  0
  9 10  2  0
 10 11  1  0
 11 12  2  0
 12 13  1  0
 13 14  2  0
  9 14  1  0
 15 16  1  0
 16 17  2  0
 17 18  1  0
 18 19  2  0
 19 20  1  0
 15 20  2  0
  9 15  1  0
 21 22  1  0
 22 23  2  0
 23 24  1  0
 24 25  1  0
 21 25  1  0
 25 26  2  0
 16 23  1  0
  8 12  1  0
  5  8  1  0
  3 27  1  0
 28 29  1  0
 29 30  1  0
 30 31  1  0
  1 28  1  0
M  END
>  <From>  (1) 
www.bindingDB.org

>  <BindingDB Reactant_set_id>  (1) 
50489331

>  <Ligand InChI>  (1) 
InChI=1S/C23H21ClN4O3/c1-2-3-8-20-25-21(24)19(14-29)28(20)13-15-9-11-16(12-10-15)17-6-4-5-7-18(17)22-26-23(30)31-27-22/h4-7,9-12,14H,2-3,8,13H2,1H3,(H,26,27,30)

>  <Ligand InChI Key>  (1) 
RUSZIOHXCKMEFD-UHFFFAOYSA-N

>  <BindingDB MonomerID>  (1) 
50161276

>  <BindingDB Ligand Name>  (1) 
CHEMBL3786570

>  <Target Name>  (1) 
Type-1 angiotensin II receptor A

>  <Target Source Organism According to Curator or DataSource>  (1) 
Rattus

>  <Ki (nM)>  (1) 


>  <IC50 (nM)>  (1) 
 4.3

>  <Kd (nM)>  (1) 


>  <EC50 (nM)>  (1) 


>  <kon (M-1-s-1)>  (1) 


>  <koff (s-1)>  (1) 


>  <pH>  (1) 


>  <Temp C>  (1) 


>  <Curation/DataSource>  (1) 
ChEMBL

>  <Article DOI>  (1) 
10.1016/j.bmc.2016.03.028

>  <BindingDB Entry DOI>  (1) 
10.7270/Q2XW4MQB

>  <PMID>  (1) 
27004954

>  <PubChem AID>  (1) 


>  <Patent Number>  (1) 


>  <Authors>  (1) 
Bao, X; Zhu, W; Zhang, R; Wen, C; Wang, L; Yan, Y; Tang, H; Chen, Z

>  <Institution>  (1) 
Donghua University

>  <Link to Ligand in BindingDB>  (1) 
http://www.bindingdb.org/bind/chemsearch/marvin/MolStructure.jsp?monomerid=50161276

>  <Link to Ligand-Target Pair in BindingDB>  (1) 
http://www.bindingdb.org/jsp/dbsearch/PrimarySearch_ki.jsp?energyterm=kJ/mole&tag=r21&monomerid=50161276&enzyme=Type-1+angiotensin+II+receptor+A&column=ki&startPg=0&Increment=50&submit=Search

>  <Ligand HET ID in PDB>  (1) 


>  <PDB ID(s) for Ligand-Target Complex>  (1) 


>  <PubChem CID of Ligand>  (1) 
18693166

>  <PubChem SID of Ligand>  (1) 
341096875

>  <ChEBI ID of Ligand>  (1) 


>  <ChEMBL ID of Ligand>  (1) 
CHEMBL3786570

>  <DrugBank ID of Ligand>  (1) 


>  <IUPHAR_GRAC ID of Ligand>  (1) 


>  <KEGG ID of Ligand>  (1) 


>  <ZINC ID of Ligand>  (1) 


>  <Number of Protein Chains in Target (bigger than 1 implies a multichain complex)>  (1) 
1

>  <BindingDB Target Chain Sequence>  (1) 
MALNSSAEDGIKRIQDDCPKAGRHSYIFVMIPTLYSIIFVVGIFGNSLVVIVIYFYMKLKTVASVFLLNLALADLCFLLTLPLWAVYTAMEYRWPFGNHLCKIASASVSFNLYASVFLLTCLSIDRYLAIVHPMKSRLRRTMLVAKVTCIIIWLMAGLASLPAVIHRNVYFIENTNITVCAFHYESRNSTLPIGLGLTKNILGFLFPFLIILTSYTLIWKALKKAYEIQKNKPRNDDIFRIIMAIVLFFFFSWVPHQIFTFLDVLIQLGVIHDCKISDIVDTAMPITICIAYFNNCLNPLFYGFLGKKFKKYFLQLLKYIPPKAKSHSSLSTKMSTLSYRPSDNMSSSAKKPASCFEVE

>  <PDB ID(s) of Target Chain>  (1) 


>  <UniProt (SwissProt) Recommended Name of Target Chain>  (1) 
Type-1 angiotensin II receptor A

>  <UniProt (SwissProt) Entry Name of Target Chain>  (1) 
AGTRA_RAT

>  <UniProt (SwissProt) Primary ID of Target Chain>  (1) 
P25095

>  <UniProt (SwissProt) Secondary ID(s) of Target Chain>  (1) 
Q9QVS5

>  <UniProt (SwissProt) Alternative ID(s) of Target Chain>  (1) 


>  <UniProt (TrEMBL) Submitted Name of Target Chain>  (1) 


>  <UniProt (TrEMBL) Entry Name of Target Chain>  (1) 


>  <UniProt (TrEMBL) Primary ID of Target Chain>  (1) 


>  <UniProt (TrEMBL) Secondary ID(s) of Target Chain>  (1) 


>  <UniProt (TrEMBL) Alternative ID(s) of Target Chain>  (1) 


$$$$
