
     RDKit          2D

 46 51  0  0  0  0  0  0  0  0999 V2000
    2.7032   -1.6070    0.0000 N   0  0  0  0  0  0  0  0  0  0  0  0
    2.2900   -2.8926    0.0000 N   0  0  0  0  0  0  0  0  0  0  0  0
    5.8598   -4.1208    0.0000 S   0  0  0  0  0  0  0  0  0  0  0  0
    2.9500   -2.3990    0.0000 C   0  0  0  0  0  0  0  0  0  0  0  0
    1.8767   -1.6185    0.0000 N   0  0  0  0  0  0  0  0  0  0  0  0
    6.5657   -2.8811    0.0000 C   0  0  0  0  0  0  0  0  0  0  0  0
    1.6185   -2.3990    0.0000 C   0  0  0  0  0  0  0  0  0  0  0  0
    5.8540   -3.2944    0.0000 N   0  0  0  0  0  0  0  0  0  0  0  0
    7.3347   -3.2197    0.0000 N   0  0  0  0  0  0  0  0  0  0  0  0
    2.8467   -0.2066    0.0000 C   0  0  0  0  0  0  0  0  0  0  0  0
    3.1853   -0.9528    0.0000 C   0  0  0  0  0  0  0  0  0  0  0  0
    2.0203   -0.1263    0.0000 C   0  0  0  0  0  0  0  0  0  0  0  0
    5.8598   -4.9473    0.0000 C   0  0  0  0  0  0  0  0  0  0  0  0
    6.6460   -2.0661    0.0000 O   0  0  0  0  0  0  0  0  0  0  0  0
    5.1481   -5.3605    0.0000 C   0  0  0  0  0  0  0  0  0  0  0  0
    7.8685   -2.6057    0.0000 C   0  0  0  0  0  0  0  0  0  0  0  0
    2.2900   -3.7190    0.0000 C   0  0  0  0  0  0  0  0  0  0  0  0
    7.4553   -1.8939    0.0000 C   0  0  0  0  0  0  0  0  0  0  0  0
    6.6863   -4.1208    0.0000 O   0  0  0  0  0  0  0  0  0  0  0  0
    5.0334   -4.1208    0.0000 O   0  0  0  0  0  0  0  0  0  0  0  0
    3.7420   -2.6573    0.0000 O   0  0  0  0  0  0  0  0  0  0  0  0
    4.4307   -4.9473    0.0000 C   0  0  0  0  0  0  0  0  0  0  0  0
    1.4119   -0.7289    0.0000 F   0  0  0  0  0  0  0  0  0  0  0  0
    1.2741   -0.0402    0.0000 F   0  0  0  0  0  0  0  0  0  0  0  0
    1.5496    0.5968    0.0000 F   0  0  0  0  0  0  0  0  0  0  0  0
    3.7190   -5.3605    0.0000 C   0  0  0  0  0  0  0  0  0  0  0  0
    4.4307   -4.1208    0.0000 C   0  0  0  0  0  0  0  0  0  0  0  0
    3.0017   -4.1208    0.0000 C   0  0  0  0  0  0  0  0  0  0  0  0
    0.8322   -2.6573    0.0000 C   0  0  0  0  0  0  0  0  0  0  0  0
    3.3288    0.4591    0.0000 C   0  0  0  0  0  0  0  0  0  0  0  0
    3.0017   -4.9473    0.0000 C   0  0  0  0  0  0  0  0  0  0  0  0
    3.7076   -3.7076    0.0000 C   0  0  0  0  0  0  0  0  0  0  0  0
    4.0003   -1.0388    0.0000 C   0  0  0  0  0  0  0  0  0  0  0  0
    6.5772   -5.3605    0.0000 C   0  0  0  0  0  0  0  0  0  0  0  0
    5.1481   -6.1869    0.0000 C   0  0  0  0  0  0  0  0  0  0  0  0
    8.6835   -2.5999    0.0000 C   0  0  0  0  0  0  0  0  0  0  0  0
    7.8571   -1.1766    0.0000 C   0  0  0  0  0  0  0  0  0  0  0  0
    0.2124   -2.1063    0.0000 C   0  0  0  0  0  0  0  0  0  0  0  0
   -0.5682   -2.3588    0.0000 C   0  0  0  0  0  0  0  0  0  0  0  0
    4.1495    0.3788    0.0000 C   0  0  0  0  0  0  0  0  0  0  0  0
    4.4824   -0.3788    0.0000 C   0  0  0  0  0  0  0  0  0  0  0  0
    6.5830   -6.1869    0.0000 C   0  0  0  0  0  0  0  0  0  0  0  0
    5.8598   -6.6002    0.0000 C   0  0  0  0  0  0  0  0  0  0  0  0
    8.6777   -1.1766    0.0000 C   0  0  0  0  0  0  0  0  0  0  0  0
    9.0967   -1.8825    0.0000 C   0  0  0  0  0  0  0  0  0  0  0  0
   -1.1822   -1.8079    0.0000 C   0  0  0  0  0  0  0  0  0  0  0  0
  2  4  1  0
  3 13  1  0
  4  1  1  0
  5  1  1  0
  6  8  1  0
  7  5  2  0
  8  3  1  0
  9  6  2  0
 10 11  2  0
 11  1  1  0
 12 10  1  0
 13 15  1  0
 14  6  1  0
 15 22  1  0
 16  9  1  0
 17  2  1  0
 18 14  1  0
 19  3  2  0
 20  3  2  0
 21  4  2  0
 22 27  2  0
 23 12  1  0
 24 12  1  0
 25 12  1  0
 26 31  2  0
 27 32  1  0
 28 17  1  0
 29  7  1  0
 30 10  1  0
 31 28  1  0
 32 28  2  0
 33 11  1  0
 34 13  2  0
 35 15  2  0
 36 16  2  0
 37 18  2  0
 38 29  1  0
 39 38  1  0
 40 41  1  0
 41 33  2  0
 42 43  2  0
 43 35  1  0
 44 37  1  0
 45 36  1  0
 46 39  1  0
  2  7  1  0
 40 30  2  0
 22 26  1  0
 42 34  1  0
 16 18  1  0
 44 45  2  0
M  END
>  <From>  (1) 
www.bindingDB.org

>  <BindingDB Reactant_set_id>  (1) 
50036480

>  <Ligand InChI>  (1) 
InChI=1S/C33H28F3N5O4S/c1-2-3-16-30-38-41(27-13-7-5-11-25(27)33(34,35)36)32(42)40(30)21-22-17-19-23(20-18-22)24-10-4-9-15-29(24)46(43,44)39-31-37-26-12-6-8-14-28(26)45-31/h4-15,17-20H,2-3,16,21H2,1H3,(H,37,39)

>  <Ligand InChI Key>  (1) 
BXRKFZIBTDBIGD-UHFFFAOYSA-N

>  <BindingDB MonomerID>  (1) 
50039869

>  <BindingDB Ligand Name>  (1) 
4'-[3-Butyl-5-oxo-1-(2-trifluoromethyl-phenyl)-1,5-dihydro-[1,2,4]triazol-4-ylmethyl]-biphenyl-2-sulfonic acid benzooxazol-2-ylamide::CHEMBL327569

>  <Target Name>  (1) 
Type-1 angiotensin II receptor

>  <Target Source Organism According to Curator or DataSource>  (1) 
Oryctolagus cuniculus

>  <Ki (nM)>  (1) 


>  <IC50 (nM)>  (1) 
 5.2

>  <Kd (nM)>  (1) 


>  <EC50 (nM)>  (1) 


>  <kon (M-1-s-1)>  (1) 


>  <koff (s-1)>  (1) 


>  <pH>  (1) 


>  <Temp C>  (1) 


>  <Curation/DataSource>  (1) 
ChEMBL

>  <Article DOI>  (1) 
10.1021/jm00043a020

>  <BindingDB Entry DOI>  (1) 
10.7270/Q2M907QM

>  <PMID>  (1) 
8064808

>  <PubChem AID>  (1) 


>  <Patent Number>  (1) 


>  <Authors>  (1) 
Ashton, WT; Chang, LL; Flanagan, KL; Hutchins, SM; Naylor, EM; Chakravarty, PK; Patchett, AA; Greenlee, WJ; Chen, TB; Faust, KA

>  <Institution>  (1) 
Merck Research Laboratories

>  <Link to Ligand in BindingDB>  (1) 
http://www.bindingdb.org/bind/chemsearch/marvin/MolStructure.jsp?monomerid=50039869

>  <Link to Ligand-Target Pair in BindingDB>  (1) 
http://www.bindingdb.org/jsp/dbsearch/PrimarySearch_ki.jsp?energyterm=kJ/mole&tag=r21&monomerid=50039869&enzyme=Type-1+angiotensin+II+receptor&column=ki&startPg=0&Increment=50&submit=Search

>  <Ligand HET ID in PDB>  (1) 


>  <PDB ID(s) for Ligand-Target Complex>  (1) 


>  <PubChem CID of Ligand>  (1) 
10349256

>  <PubChem SID of Ligand>  (1) 
103947064

>  <ChEBI ID of Ligand>  (1) 


>  <ChEMBL ID of Ligand>  (1) 
CHEMBL327569

>  <DrugBank ID of Ligand>  (1) 


>  <IUPHAR_GRAC ID of Ligand>  (1) 


>  <KEGG ID of Ligand>  (1) 


>  <ZINC ID of Ligand>  (1) 
ZINC26673084

>  <Number of Protein Chains in Target (bigger than 1 implies a multichain complex)>  (1) 
1

>  <BindingDB Target Chain Sequence>  (1) 
MMLNSSTEDGIKRIQDDCPKAGRHNYIFVMIPTLYSIIFVVGIFGNSLAVIVIYFYMKLKTVASVFLLNLALADLCFLLTLPLWAVYTAMEYRWPFGNYLCKIASASVSFNLYASVFLLTCLSIDRYLAIVHPMKSRLRRTMLVAKVTCIIIWLLAGLASLPAIIHRNVFFIENTNITVCAFHYESQNSTLPIGLGLTKNILGFLFPFLIILTSYTLIWKALKKAYEIQKNKPRNDDIFKIIMAIVLFFFFSWVPHQIFTFLDVLIQLGVIHDCRIADIVDTAMPITICIAYFNNCLNPLFYGFLGKKFKKYFLQLLKYIPPKAKSHSNLSTKMSTLSYRPSDNVSSSSKKPVPCFEVE

>  <PDB ID(s) of Target Chain>  (1) 
6DO1,6OS0,6OS1,6OS2

>  <UniProt (SwissProt) Recommended Name of Target Chain>  (1) 
Type-1 angiotensin II receptor

>  <UniProt (SwissProt) Entry Name of Target Chain>  (1) 
AGTR1_RABIT

>  <UniProt (SwissProt) Primary ID of Target Chain>  (1) 
P34976

>  <UniProt (SwissProt) Secondary ID(s) of Target Chain>  (1) 


>  <UniProt (SwissProt) Alternative ID(s) of Target Chain>  (1) 


>  <UniProt (TrEMBL) Submitted Name of Target Chain>  (1) 


>  <UniProt (TrEMBL) Entry Name of Target Chain>  (1) 


>  <UniProt (TrEMBL) Primary ID of Target Chain>  (1) 


>  <UniProt (TrEMBL) Secondary ID(s) of Target Chain>  (1) 


>  <UniProt (TrEMBL) Alternative ID(s) of Target Chain>  (1) 


$$$$
