
     RDKit          2D

 35 39  0  0  0  0  0  0  0  0999 V2000
   -2.8833    1.0583    0.0000 N   0  0  0  0  0  0  0  0  0  0  0  0
   -2.1333    0.7208    0.0000 C   0  0  0  0  0  0  0  0  0  0  0  0
   -1.9958    2.0458    0.0000 N   0  0  0  0  0  0  0  0  0  0  0  0
   -2.8000    1.8708    0.0000 C   0  0  0  0  0  0  0  0  0  0  0  0
   -1.5833    1.3333    0.0000 C   0  0  0  0  0  0  0  0  0  0  0  0
   -2.8833   -3.0667    0.0000 C   0  0  0  0  0  0  0  0  0  0  0  0
   -3.5958   -2.6625    0.0000 C   0  0  0  0  0  0  0  0  0  0  0  0
   -2.8833   -3.8917    0.0000 C   0  0  0  0  0  0  0  0  0  0  0  0
   -3.5958   -4.3125    0.0000 N   0  0  0  0  0  0  0  0  0  0  0  0
   -1.8750   -0.0667    0.0000 N   0  0  0  0  0  0  0  0  0  0  0  0
   -2.1708   -2.6542    0.0000 C   0  0  0  0  0  0  0  0  0  0  0  0
   -4.3125   -3.0750    0.0000 C   0  0  0  0  0  0  0  0  0  0  0  0
   -0.7750    1.1625    0.0000 C   0  0  0  0  0  0  0  0  0  0  0  0
   -4.3083   -3.8917    0.0000 C   0  0  0  0  0  0  0  0  0  0  0  0
   -3.6000    0.6458    0.0000 C   0  0  0  0  0  0  0  0  0  0  0  0
   -3.5958   -1.8375    0.0000 C   0  0  0  0  0  0  0  0  0  0  0  0
   -1.0708   -0.2292    0.0000 C   0  0  0  0  0  0  0  0  0  0  0  0
   -0.5208    0.3833    0.0000 C   0  0  0  0  0  0  0  0  0  0  0  0
   -2.1708   -1.8292    0.0000 O   0  0  0  0  0  0  0  0  0  0  0  0
   -2.8833   -1.4250    0.0000 C   0  0  0  0  0  0  0  0  0  0  0  0
   -4.3083   -1.4250    0.0000 C   0  0  0  0  0  0  0  0  0  0  0  0
   -3.5958   -0.1792    0.0000 C   0  0  0  0  0  0  0  0  0  0  0  0
   -1.4500   -3.0667    0.0000 O   0  0  0  0  0  0  0  0  0  0  0  0
   -3.4125    2.4208    0.0000 C   0  0  0  0  0  0  0  0  0  0  0  0
   -2.8833   -0.5917    0.0000 C   0  0  0  0  0  0  0  0  0  0  0  0
   -4.3083   -0.6000    0.0000 C   0  0  0  0  0  0  0  0  0  0  0  0
   -2.1708   -4.3042    0.0000 C   0  0  0  0  0  0  0  0  0  0  0  0
   -0.2250    1.7833    0.0000 C   0  0  0  0  0  0  0  0  0  0  0  0
   -5.0333   -2.6667    0.0000 C   0  0  0  0  0  0  0  0  0  0  0  0
   -5.0208   -4.3125    0.0000 C   0  0  0  0  0  0  0  0  0  0  0  0
   -0.8083   -1.0167    0.0000 C   0  0  0  0  0  0  0  0  0  0  0  0
   -3.2458    3.2333    0.0000 C   0  0  0  0  0  0  0  0  0  0  0  0
   -5.7375   -3.0792    0.0000 C   0  0  0  0  0  0  0  0  0  0  0  0
   -5.7333   -3.9042    0.0000 C   0  0  0  0  0  0  0  0  0  0  0  0
   -3.8583    3.7833    0.0000 C   0  0  0  0  0  0  0  0  0  0  0  0
  2  1  1  0
  3  4  2  0
  4  1  1  0
  5  2  2  0
  6  7  2  0
  7 16  1  0
  8  6  1  0
  9 14  1  0
 10  2  1  0
 11  6  1  0
 12  7  1  0
 13  5  1  0
 14 12  2  0
 15  1  1  0
 16 21  2  0
 17 10  2  0
 18 17  1  0
 19 11  2  0
 20 25  2  0
 21 26  1  0
 22 15  1  0
 23 11  1  0
 24  4  1  0
 25 22  1  0
 26 22  2  0
 27  8  1  0
 28 13  1  0
 29 12  1  0
 30 14  1  0
 31 17  1  0
 32 24  1  0
 33 29  2  0
 34 33  1  0
 35 32  1  0
  5  3  1  0
 16 20  1  0
 18 13  2  0
  8  9  2  0
 34 30  2  0
M  END
>  <From>  (1) 
www.bindingDB.org

>  <BindingDB Reactant_set_id>  (1) 
50363328

>  <Ligand InChI>  (1) 
InChI=1S/C29H28N4O2/c1-5-8-24-32-27-17(2)15-18(3)30-28(27)33(24)16-20-11-13-21(14-12-20)26-22-9-6-7-10-23(22)31-19(4)25(26)29(34)35/h6-7,9-15H,5,8,16H2,1-4H3,(H,34,35)

>  <Ligand InChI Key>  (1) 
YBVMIUSZGJGLEL-UHFFFAOYSA-N

>  <BindingDB MonomerID>  (1) 
50145981

>  <BindingDB Ligand Name>  (1) 
4-(4-((5,7-dimethyl-2-propyl-3H-imidazo[4,5-b]pyridin-3-yl)methyl)phenyl)-2-methylquinoline-3-carboxylic acid::4-[4-(5,7-Dimethyl-2-propyl-imidazo[4,5-b]pyridin-3-ylmethyl)-phenyl]-2-methyl-quinoline-3-carboxylic acid::CHEMBL84573

>  <Target Name>  (1) 
Type-1 angiotensin II receptor

>  <Target Source Organism According to Curator or DataSource>  (1) 
Oryctolagus cuniculus

>  <Ki (nM)>  (1) 


>  <IC50 (nM)>  (1) 
 13

>  <Kd (nM)>  (1) 


>  <EC50 (nM)>  (1) 


>  <kon (M-1-s-1)>  (1) 


>  <koff (s-1)>  (1) 


>  <pH>  (1) 


>  <Temp C>  (1) 


>  <Curation/DataSource>  (1) 
ChEMBL

>  <Article DOI>  (1) 
10.1021/jm0603163

>  <BindingDB Entry DOI>  (1) 
10.7270/Q2WW7H9J

>  <PMID>  (1) 
17064065

>  <PubChem AID>  (1) 


>  <Patent Number>  (1) 


>  <Authors>  (1) 
Cappelli, A; Pericot Mohr, G; Giuliani, G; Galeazzi, S; Anzini, M; Mennuni, L; Ferrari, F; Makovec, F; Kleinrath, EM; Langer, T; Valoti, M; Giorgi, G; Vomero, S

>  <Institution>  (1) 
Universit&#224; di Siena

>  <Link to Ligand in BindingDB>  (1) 
http://www.bindingdb.org/bind/chemsearch/marvin/MolStructure.jsp?monomerid=50145981

>  <Link to Ligand-Target Pair in BindingDB>  (1) 
http://www.bindingdb.org/jsp/dbsearch/PrimarySearch_ki.jsp?energyterm=kJ/mole&tag=r21&monomerid=50145981&enzyme=Type-1+angiotensin+II+receptor&column=ki&startPg=0&Increment=50&submit=Search

>  <Ligand HET ID in PDB>  (1) 


>  <PDB ID(s) for Ligand-Target Complex>  (1) 


>  <PubChem CID of Ligand>  (1) 
11328757

>  <PubChem SID of Ligand>  (1) 
104034667

>  <ChEBI ID of Ligand>  (1) 


>  <ChEMBL ID of Ligand>  (1) 
CHEMBL84573

>  <DrugBank ID of Ligand>  (1) 


>  <IUPHAR_GRAC ID of Ligand>  (1) 


>  <KEGG ID of Ligand>  (1) 


>  <ZINC ID of Ligand>  (1) 
ZINC13560862

>  <Number of Protein Chains in Target (bigger than 1 implies a multichain complex)>  (1) 
1

>  <BindingDB Target Chain Sequence>  (1) 
MMLNSSTEDGIKRIQDDCPKAGRHNYIFVMIPTLYSIIFVVGIFGNSLAVIVIYFYMKLKTVASVFLLNLALADLCFLLTLPLWAVYTAMEYRWPFGNYLCKIASASVSFNLYASVFLLTCLSIDRYLAIVHPMKSRLRRTMLVAKVTCIIIWLLAGLASLPAIIHRNVFFIENTNITVCAFHYESQNSTLPIGLGLTKNILGFLFPFLIILTSYTLIWKALKKAYEIQKNKPRNDDIFKIIMAIVLFFFFSWVPHQIFTFLDVLIQLGVIHDCRIADIVDTAMPITICIAYFNNCLNPLFYGFLGKKFKKYFLQLLKYIPPKAKSHSNLSTKMSTLSYRPSDNVSSSSKKPVPCFEVE

>  <PDB ID(s) of Target Chain>  (1) 
6DO1,6OS0,6OS1,6OS2

>  <UniProt (SwissProt) Recommended Name of Target Chain>  (1) 
Type-1 angiotensin II receptor

>  <UniProt (SwissProt) Entry Name of Target Chain>  (1) 
AGTR1_RABIT

>  <UniProt (SwissProt) Primary ID of Target Chain>  (1) 
P34976

>  <UniProt (SwissProt) Secondary ID(s) of Target Chain>  (1) 


>  <UniProt (SwissProt) Alternative ID(s) of Target Chain>  (1) 


>  <UniProt (TrEMBL) Submitted Name of Target Chain>  (1) 


>  <UniProt (TrEMBL) Entry Name of Target Chain>  (1) 


>  <UniProt (TrEMBL) Primary ID of Target Chain>  (1) 


>  <UniProt (TrEMBL) Secondary ID(s) of Target Chain>  (1) 


>  <UniProt (TrEMBL) Alternative ID(s) of Target Chain>  (1) 


$$$$
