
     RDKit          2D

 34 37  0  0  0  0  0  0  0  0999 V2000
    7.0901   -3.7240    0.0000 N   0  0  0  0  0  0  0  0  0  0  0  0
    7.0818   -2.3759    0.0000 N   0  0  0  0  0  0  0  0  0  0  0  0
    6.2954   -3.4702    0.0000 C   0  0  0  0  0  0  0  0  0  0  0  0
    7.5687   -3.0500    0.0000 C   0  0  0  0  0  0  0  0  0  0  0  0
    6.2954   -2.6380    0.0000 C   0  0  0  0  0  0  0  0  0  0  0  0
    5.4217   -7.7434    0.0000 C   0  0  0  0  0  0  0  0  0  0  0  0
    4.8724   -8.3551    0.0000 C   0  0  0  0  0  0  0  0  0  0  0  0
    6.2330   -7.9057    0.0000 C   0  0  0  0  0  0  0  0  0  0  0  0
    5.5797   -3.8821    0.0000 N   0  0  0  0  0  0  0  0  0  0  0  0
    7.3440   -4.4979    0.0000 C   0  0  0  0  0  0  0  0  0  0  0  0
    5.1595   -6.9570    0.0000 O   0  0  0  0  0  0  0  0  0  0  0  0
    4.0735   -8.1928    0.0000 C   0  0  0  0  0  0  0  0  0  0  0  0
    5.5797   -2.2261    0.0000 C   0  0  0  0  0  0  0  0  0  0  0  0
    6.7781   -7.2940    0.0000 O   0  0  0  0  0  0  0  0  0  0  0  0
    5.7088   -6.3454    0.0000 C   0  0  0  0  0  0  0  0  0  0  0  0
    6.8030   -5.1179    0.0000 C   0  0  0  0  0  0  0  0  0  0  0  0
    6.4910   -8.6921    0.0000 O   0  0  0  0  0  0  0  0  0  0  0  0
    8.3925   -3.0375    0.0000 C   0  0  0  0  0  0  0  0  0  0  0  0
    4.8682   -3.4702    0.0000 C   0  0  0  0  0  0  0  0  0  0  0  0
    6.5201   -6.5076    0.0000 C   0  0  0  0  0  0  0  0  0  0  0  0
    5.4466   -5.5672    0.0000 C   0  0  0  0  0  0  0  0  0  0  0  0
    7.0652   -5.8960    0.0000 C   0  0  0  0  0  0  0  0  0  0  0  0
    5.9959   -4.9473    0.0000 C   0  0  0  0  0  0  0  0  0  0  0  0
    3.8114   -7.4147    0.0000 O   0  0  0  0  0  0  0  0  0  0  0  0
    5.1428   -9.1415    0.0000 C   0  0  0  0  0  0  0  0  0  0  0  0
    4.8682   -2.6463    0.0000 C   0  0  0  0  0  0  0  0  0  0  0  0
    5.5714   -1.4022    0.0000 C   0  0  0  0  0  0  0  0  0  0  0  0
    3.5243   -8.8044    0.0000 C   0  0  0  0  0  0  0  0  0  0  0  0
    3.0083   -7.2441    0.0000 C   0  0  0  0  0  0  0  0  0  0  0  0
    8.8127   -3.7490    0.0000 C   0  0  0  0  0  0  0  0  0  0  0  0
    4.5853   -9.7531    0.0000 C   0  0  0  0  0  0  0  0  0  0  0  0
    2.4591   -7.8641    0.0000 C   0  0  0  0  0  0  0  0  0  0  0  0
    9.6366   -3.7490    0.0000 C   0  0  0  0  0  0  0  0  0  0  0  0
    3.7822   -9.5908    0.0000 C   0  0  0  0  0  0  0  0  0  0  0  0
  2  4  2  0
  3  1  1  0
  4  1  1  0
  5  3  2  0
  6 11  1  0
  7  6  1  0
  8  6  1  0
  9  3  1  0
 10  1  1  0
 11 15  1  0
 12  7  2  0
 13  5  1  0
 14  8  2  0
 15 21  2  0
 16 10  1  0
 17  8  1  0
 18  4  1  0
 19  9  2  0
 20 22  2  0
 21 23  1  0
 22 16  1  0
 23 16  2  0
 24 12  1  0
 25  7  1  0
 26 19  1  0
 27 13  1  0
 28 12  1  0
 29 24  1  0
 30 18  1  0
 31 25  2  0
 32 29  1  0
 33 30  1  0
 34 31  1  0
  2  5  1  0
 15 20  1  0
 13 26  2  0
 28 34  2  0
M  END
>  <From>  (1) 
www.bindingDB.org

>  <BindingDB Reactant_set_id>  (1) 
50004229

>  <Ligand InChI>  (1) 
InChI=1S/C27H29N3O4/c1-4-8-23-29-24-18(3)15-16-28-26(24)30(23)17-19-11-13-20(14-12-19)34-25(27(31)32)21-9-6-7-10-22(21)33-5-2/h6-7,9-16,25H,4-5,8,17H2,1-3H3,(H,31,32)

>  <Ligand InChI Key>  (1) 
MUOHIXSZSNNHEE-UHFFFAOYSA-N

>  <BindingDB MonomerID>  (1) 
50285356

>  <BindingDB Ligand Name>  (1) 
(2-Ethoxy-phenyl)-[4-(7-methyl-2-propyl-imidazo[4,5-b]pyridin-3-ylmethyl)-phenoxy]-acetic acid::CHEMBL36218

>  <Target Name>  (1) 
Type-1 angiotensin II receptor

>  <Target Source Organism According to Curator or DataSource>  (1) 
Oryctolagus cuniculus

>  <Ki (nM)>  (1) 


>  <IC50 (nM)>  (1) 
 18

>  <Kd (nM)>  (1) 


>  <EC50 (nM)>  (1) 


>  <kon (M-1-s-1)>  (1) 


>  <koff (s-1)>  (1) 


>  <pH>  (1) 


>  <Temp C>  (1) 


>  <Curation/DataSource>  (1) 
ChEMBL

>  <Article DOI>  (1) 
10.1016/0960-894X(94)00476-V

>  <BindingDB Entry DOI>  (1) 
10.7270/Q26H4HC9

>  <PMID>  (1) 


>  <PubChem AID>  (1) 


>  <Patent Number>  (1) 


>  <Authors>  (1) 
Fitch, KJ; Walsh, TF; Patchett, AA; Chang, RS; Siegl, PK; Faust, KA; Chen, TB; Lotti, VJ; Kivlighn, SD; Zingaro, GJ; Greenlee, WJ

>  <Institution>  (1) 
TBA

>  <Link to Ligand in BindingDB>  (1) 
http://www.bindingdb.org/bind/chemsearch/marvin/MolStructure.jsp?monomerid=50285356

>  <Link to Ligand-Target Pair in BindingDB>  (1) 
http://www.bindingdb.org/jsp/dbsearch/PrimarySearch_ki.jsp?energyterm=kJ/mole&tag=r21&monomerid=50285356&enzyme=Type-1+angiotensin+II+receptor&column=ki&startPg=0&Increment=50&submit=Search

>  <Ligand HET ID in PDB>  (1) 


>  <PDB ID(s) for Ligand-Target Complex>  (1) 


>  <PubChem CID of Ligand>  (1) 
15287891

>  <PubChem SID of Ligand>  (1) 
104126927

>  <ChEBI ID of Ligand>  (1) 


>  <ChEMBL ID of Ligand>  (1) 
CHEMBL36218

>  <DrugBank ID of Ligand>  (1) 


>  <IUPHAR_GRAC ID of Ligand>  (1) 


>  <KEGG ID of Ligand>  (1) 


>  <ZINC ID of Ligand>  (1) 
ZINC29320240

>  <Number of Protein Chains in Target (bigger than 1 implies a multichain complex)>  (1) 
1

>  <BindingDB Target Chain Sequence>  (1) 
MMLNSSTEDGIKRIQDDCPKAGRHNYIFVMIPTLYSIIFVVGIFGNSLAVIVIYFYMKLKTVASVFLLNLALADLCFLLTLPLWAVYTAMEYRWPFGNYLCKIASASVSFNLYASVFLLTCLSIDRYLAIVHPMKSRLRRTMLVAKVTCIIIWLLAGLASLPAIIHRNVFFIENTNITVCAFHYESQNSTLPIGLGLTKNILGFLFPFLIILTSYTLIWKALKKAYEIQKNKPRNDDIFKIIMAIVLFFFFSWVPHQIFTFLDVLIQLGVIHDCRIADIVDTAMPITICIAYFNNCLNPLFYGFLGKKFKKYFLQLLKYIPPKAKSHSNLSTKMSTLSYRPSDNVSSSSKKPVPCFEVE

>  <PDB ID(s) of Target Chain>  (1) 
6DO1,6OS0,6OS1,6OS2

>  <UniProt (SwissProt) Recommended Name of Target Chain>  (1) 
Type-1 angiotensin II receptor

>  <UniProt (SwissProt) Entry Name of Target Chain>  (1) 
AGTR1_RABIT

>  <UniProt (SwissProt) Primary ID of Target Chain>  (1) 
P34976

>  <UniProt (SwissProt) Secondary ID(s) of Target Chain>  (1) 


>  <UniProt (SwissProt) Alternative ID(s) of Target Chain>  (1) 


>  <UniProt (TrEMBL) Submitted Name of Target Chain>  (1) 


>  <UniProt (TrEMBL) Entry Name of Target Chain>  (1) 


>  <UniProt (TrEMBL) Primary ID of Target Chain>  (1) 


>  <UniProt (TrEMBL) Secondary ID(s) of Target Chain>  (1) 


>  <UniProt (TrEMBL) Alternative ID(s) of Target Chain>  (1) 


$$$$
