
     RDKit          2D

 33 36  0  0  0  0  0  0  0  0999 V2000
    0.2319  -18.4583    0.0000 N   0  0  0  0  0  0  0  0  0  0  0  0
    0.2307  -19.2857    0.0000 C   0  0  0  0  0  0  0  0  0  0  0  0
    0.9456  -19.6985    0.0000 N   0  0  0  0  0  0  0  0  0  0  0  0
    1.6620  -19.2852    0.0000 C   0  0  0  0  0  0  0  0  0  0  0  0
    1.6591  -18.4547    0.0000 C   0  0  0  0  0  0  0  0  0  0  0  0
    0.9438  -18.0455    0.0000 C   0  0  0  0  0  0  0  0  0  0  0  0
    0.9454  -20.5235    0.0000 C   0  0  0  0  0  0  0  0  0  0  0  0
    1.6597  -20.9362    0.0000 C   0  0  0  0  0  0  0  0  0  0  0  0
    1.6554  -21.7594    0.0000 C   0  0  0  0  0  0  0  0  0  0  0  0
    2.3689  -22.1720    0.0000 C   0  0  0  0  0  0  0  0  0  0  0  0
    3.0844  -21.7596    0.0000 C   0  0  0  0  0  0  0  0  0  0  0  0
    3.0820  -20.9304    0.0000 C   0  0  0  0  0  0  0  0  0  0  0  0
    2.3679  -20.5215    0.0000 C   0  0  0  0  0  0  0  0  0  0  0  0
    3.7986  -22.1708    0.0000 C   0  0  0  0  0  0  0  0  0  0  0  0
    3.7982  -22.9966    0.0000 C   0  0  0  0  0  0  0  0  0  0  0  0
    4.5122  -23.4086    0.0000 C   0  0  0  0  0  0  0  0  0  0  0  0
    5.2272  -22.9952    0.0000 C   0  0  0  0  0  0  0  0  0  0  0  0
    5.2236  -22.1660    0.0000 C   0  0  0  0  0  0  0  0  0  0  0  0
    4.5090  -21.7581    0.0000 C   0  0  0  0  0  0  0  0  0  0  0  0
    3.1469  -23.5050    0.0000 C   0  0  0  0  0  0  0  0  0  0  0  0
    2.3541  -23.2767    0.0000 N   0  0  0  0  0  0  0  0  0  0  0  0
    1.8921  -23.9603    0.0000 N   0  0  0  0  0  0  0  0  0  0  0  0
    2.3994  -24.6109    0.0000 N   0  0  0  0  0  0  0  0  0  0  0  0
    3.1749  -24.3295    0.0000 N   0  0  0  0  0  0  0  0  0  0  0  0
    2.3771  -19.6966    0.0000 O   0  0  0  0  0  0  0  0  0  0  0  0
   -0.4841  -19.6976    0.0000 C   0  0  0  0  0  0  0  0  0  0  0  0
   -1.1982  -19.2845    0.0000 C   0  0  0  0  0  0  0  0  0  0  0  0
   -1.9130  -19.6965    0.0000 C   0  0  0  0  0  0  0  0  0  0  0  0
    0.9413  -17.2205    0.0000 C   0  0  0  0  0  0  0  0  0  0  0  0
    2.3721  -18.0395    0.0000 C   0  0  0  0  0  0  0  0  0  0  0  0
    3.0881  -18.4493    0.0000 C   0  0  0  0  0  0  0  0  0  0  0  0
    3.8010  -18.0341    0.0000 O   0  0  0  0  0  0  0  0  0  0  0  0
    3.0912  -19.2743    0.0000 O   0  0  0  0  0  0  0  0  0  0  0  0
  7  8  1  0
 16 17  2  0
 17 18  1  0
  8  9  2  0
 18 19  2  0
 19 14  1  0
 11 14  1  0
 23 24  1  0
  4  5  1  0
  9 10  1  0
 21 22  1  0
  2  3  1  0
 10 11  2  0
  5  6  2  0
 20 21  2  0
 22 23  2  0
 24 20  1  0
 15 20  1  0
 11 12  1  0
  4 25  2  0
  6  1  1  0
  2 26  1  0
 12 13  2  0
 26 27  1  0
 13  8  1  0
 27 28  1  0
  1  2  2  0
  6 29  1  0
  3  7  1  0
  5 30  1  0
 14 15  2  0
 30 31  1  0
  3  4  1  0
 31 32  1  0
 15 16  1  0
 31 33  2  0
M  END
>  <From>  (1) 
www.bindingDB.org

>  <BindingDB Reactant_set_id>  (1) 
50718739

>  <Ligand InChI>  (1) 
InChI=1S/C24H24N6O3/c1-3-6-21-25-15(2)20(13-22(31)32)24(33)30(21)14-16-9-11-17(12-10-16)18-7-4-5-8-19(18)23-26-28-29-27-23/h4-5,7-12H,3,6,13-14H2,1-2H3,(H,31,32)(H,26,27,28,29)

>  <Ligand InChI Key>  (1) 
YBWXRBAMLMBEIU-UHFFFAOYSA-N

>  <BindingDB MonomerID>  (1) 
50364567

>  <BindingDB Ligand Name>  (1) 
CHEMBL1951124

>  <Target Name>  (1) 
Type-1 angiotensin II receptor

>  <Target Source Organism According to Curator or DataSource>  (1) 
Oryctolagus cuniculus

>  <Ki (nM)>  (1) 


>  <IC50 (nM)>  (1) 
 27.13

>  <Kd (nM)>  (1) 


>  <EC50 (nM)>  (1) 


>  <kon (M-1-s-1)>  (1) 


>  <koff (s-1)>  (1) 


>  <pH>  (1) 


>  <Temp C>  (1) 


>  <Curation/DataSource>  (1) 
ChEMBL

>  <Article DOI>  (1) 
10.1016/j.bmcl.2011.12.116

>  <BindingDB Entry DOI>  (1) 
10.7270/Q22R3S48

>  <PMID>  (1) 
22264484

>  <PubChem AID>  (1) 


>  <Patent Number>  (1) 


>  <Authors>  (1) 
Kim, TW; Yoo, BW; Lee, JK; Kim, JH; Lee, KT; Chi, YH; Lee, JY

>  <Institution>  (1) 
Kyung Hee University

>  <Link to Ligand in BindingDB>  (1) 
http://www.bindingdb.org/bind/chemsearch/marvin/MolStructure.jsp?monomerid=50364567

>  <Link to Ligand-Target Pair in BindingDB>  (1) 
http://www.bindingdb.org/jsp/dbsearch/PrimarySearch_ki.jsp?energyterm=kJ/mole&tag=r21&monomerid=50364567&enzyme=Type-1+angiotensin+II+receptor&column=ki&startPg=0&Increment=50&submit=Search

>  <Ligand HET ID in PDB>  (1) 


>  <PDB ID(s) for Ligand-Target Complex>  (1) 


>  <PubChem CID of Ligand>  (1) 
54500223

>  <PubChem SID of Ligand>  (1) 
136968629

>  <ChEBI ID of Ligand>  (1) 


>  <ChEMBL ID of Ligand>  (1) 
CHEMBL1951124

>  <DrugBank ID of Ligand>  (1) 


>  <IUPHAR_GRAC ID of Ligand>  (1) 


>  <KEGG ID of Ligand>  (1) 


>  <ZINC ID of Ligand>  (1) 
ZINC73278031

>  <Number of Protein Chains in Target (bigger than 1 implies a multichain complex)>  (1) 
1

>  <BindingDB Target Chain Sequence>  (1) 
MMLNSSTEDGIKRIQDDCPKAGRHNYIFVMIPTLYSIIFVVGIFGNSLAVIVIYFYMKLKTVASVFLLNLALADLCFLLTLPLWAVYTAMEYRWPFGNYLCKIASASVSFNLYASVFLLTCLSIDRYLAIVHPMKSRLRRTMLVAKVTCIIIWLLAGLASLPAIIHRNVFFIENTNITVCAFHYESQNSTLPIGLGLTKNILGFLFPFLIILTSYTLIWKALKKAYEIQKNKPRNDDIFKIIMAIVLFFFFSWVPHQIFTFLDVLIQLGVIHDCRIADIVDTAMPITICIAYFNNCLNPLFYGFLGKKFKKYFLQLLKYIPPKAKSHSNLSTKMSTLSYRPSDNVSSSSKKPVPCFEVE

>  <PDB ID(s) of Target Chain>  (1) 
6DO1,6OS0,6OS1,6OS2

>  <UniProt (SwissProt) Recommended Name of Target Chain>  (1) 
Type-1 angiotensin II receptor

>  <UniProt (SwissProt) Entry Name of Target Chain>  (1) 
AGTR1_RABIT

>  <UniProt (SwissProt) Primary ID of Target Chain>  (1) 
P34976

>  <UniProt (SwissProt) Secondary ID(s) of Target Chain>  (1) 


>  <UniProt (SwissProt) Alternative ID(s) of Target Chain>  (1) 


>  <UniProt (TrEMBL) Submitted Name of Target Chain>  (1) 


>  <UniProt (TrEMBL) Entry Name of Target Chain>  (1) 


>  <UniProt (TrEMBL) Primary ID of Target Chain>  (1) 


>  <UniProt (TrEMBL) Secondary ID(s) of Target Chain>  (1) 


>  <UniProt (TrEMBL) Alternative ID(s) of Target Chain>  (1) 


$$$$
