
     RDKit          2D

 32 36  0  0  0  0  0  0  0  0999 V2000
    7.4917   -6.5750    0.0000 C   0  0  0  0  0  0  0  0  0  0  0  0
    7.5792   -5.2125    0.0000 N   0  0  0  0  0  0  0  0  0  0  0  0
    6.9917   -5.8875    0.0000 N   0  0  0  0  0  0  0  0  0  0  0  0
    8.3875   -5.5875    0.0000 N   0  0  0  0  0  0  0  0  0  0  0  0
    5.2875   -1.2917    0.0000 C   0  0  0  0  0  0  0  0  0  0  0  0
    8.3000   -6.4042    0.0000 N   0  0  0  0  0  0  0  0  0  0  0  0
    4.5667   -0.8792    0.0000 N   0  0  0  0  0  0  0  0  0  0  0  0
    5.2875   -2.1167    0.0000 C   0  0  0  0  0  0  0  0  0  0  0  0
    6.9042   -7.1542    0.0000 C   0  0  0  0  0  0  0  0  0  0  0  0
    4.5667   -2.5292    0.0000 C   0  0  0  0  0  0  0  0  0  0  0  0
    6.1167   -6.9417    0.0000 C   0  0  0  0  0  0  0  0  0  0  0  0
    3.8667   -2.1167    0.0000 C   0  0  0  0  0  0  0  0  0  0  0  0
    5.9917   -0.8792    0.0000 C   0  0  0  0  0  0  0  0  0  0  0  0
    5.9917   -2.5292    0.0000 C   0  0  0  0  0  0  0  0  0  0  0  0
    3.8667   -1.2917    0.0000 C   0  0  0  0  0  0  0  0  0  0  0  0
    5.9125   -6.1542    0.0000 C   0  0  0  0  0  0  0  0  0  0  0  0
    4.5667   -3.3542    0.0000 O   0  0  0  0  0  0  0  0  0  0  0  0
    5.1167   -5.9375    0.0000 C   0  0  0  0  0  0  0  0  0  0  0  0
    6.4917   -5.5667    0.0000 C   0  0  0  0  0  0  0  0  0  0  0  0
    6.7125   -1.2917    0.0000 C   0  0  0  0  0  0  0  0  0  0  0  0
    6.7042   -2.1167    0.0000 C   0  0  0  0  0  0  0  0  0  0  0  0
    5.2875   -3.7750    0.0000 C   0  0  0  0  0  0  0  0  0  0  0  0
    5.5000   -4.5625    0.0000 C   0  0  0  0  0  0  0  0  0  0  0  0
    4.9042   -5.1417    0.0000 C   0  0  0  0  0  0  0  0  0  0  0  0
    6.2792   -4.7792    0.0000 C   0  0  0  0  0  0  0  0  0  0  0  0
    7.4250   -0.8792    0.0000 Cl  0  0  0  0  0  0  0  0  0  0  0  0
    7.1292   -7.9625    0.0000 C   0  0  0  0  0  0  0  0  0  0  0  0
    5.5292   -7.5292    0.0000 C   0  0  0  0  0  0  0  0  0  0  0  0
    3.1417   -0.8792    0.0000 C   0  0  0  0  0  0  0  0  0  0  0  0
    3.1417   -0.0542    0.0000 C   0  0  0  0  0  0  0  0  0  0  0  0
    6.5417   -8.5292    0.0000 C   0  0  0  0  0  0  0  0  0  0  0  0
    5.7417   -8.3292    0.0000 C   0  0  0  0  0  0  0  0  0  0  0  0
  2  3  1  0
  3  1  1  0
  4  6  1  0
  5  8  2  0
  6  1  2  0
  7 15  2  0
  8 10  1  0
  9  1  1  0
 10 17  1  0
 11  9  1  0
 12 10  2  0
 13  5  1  0
 14  8  1  0
 15 12  1  0
 16 11  1  0
 17 22  1  0
 18 16  2  0
 19 16  1  0
 20 21  1  0
 21 14  2  0
 22 23  1  0
 23 25  1  0
 24 18  1  0
 25 19  2  0
 26 20  1  0
 27  9  2  0
 28 11  2  0
 29 15  1  0
 30 29  1  0
 31 27  1  0
 32 31  2  0
  2  4  2  0
 32 28  1  0
 24 23  2  0
  7  5  1  0
 13 20  2  0
M  END
>  <From>  (1) 
www.bindingDB.org

>  <BindingDB Reactant_set_id>  (1) 
50005364

>  <Ligand InChI>  (1) 
InChI=1S/C25H20ClN5O/c1-2-19-14-24(22-12-11-18(26)13-23(22)27-19)32-15-16-7-9-17(10-8-16)20-5-3-4-6-21(20)25-28-30-31-29-25/h3-14H,2,15H2,1H3,(H,28,29,30,31)

>  <Ligand InChI Key>  (1) 
IUYNTOUXPMAIEK-UHFFFAOYSA-N

>  <BindingDB MonomerID>  (1) 
50003395

>  <BindingDB Ligand Name>  (1) 
7-Chloro-2-ethyl-4-[2'-(1H-tetrazol-5-yl)-biphenyl-4-ylmethoxy]-quinoline::CHEMBL132115

>  <Target Name>  (1) 
Type-1 angiotensin II receptor

>  <Target Source Organism According to Curator or DataSource>  (1) 
Cavia porcellus

>  <Ki (nM)>  (1) 


>  <IC50 (nM)>  (1) 
 160

>  <Kd (nM)>  (1) 


>  <EC50 (nM)>  (1) 


>  <kon (M-1-s-1)>  (1) 


>  <koff (s-1)>  (1) 


>  <pH>  (1) 


>  <Temp C>  (1) 


>  <Curation/DataSource>  (1) 
ChEMBL

>  <Article DOI>  (1) 
10.1021/jm00100a007

>  <BindingDB Entry DOI>  (1) 
10.7270/Q2G44P8Q

>  <PMID>  (1) 
1433210

>  <PubChem AID>  (1) 


>  <Patent Number>  (1) 


>  <Authors>  (1) 
Bradbury, RH; Allott, CP; Dennis, M; Fisher, E; Major, JS; Masek, BB; Oldham, AA; Pearce, RJ; Rankine, N; Revill, JM

>  <Institution>  (1) 
ICI Pharmaceuticals Group

>  <Link to Ligand in BindingDB>  (1) 
http://www.bindingdb.org/bind/chemsearch/marvin/MolStructure.jsp?monomerid=50003395

>  <Link to Ligand-Target Pair in BindingDB>  (1) 
http://www.bindingdb.org/jsp/dbsearch/PrimarySearch_ki.jsp?energyterm=kJ/mole&tag=r21&monomerid=50003395&enzyme=Type-1+angiotensin+II+receptor&column=ki&startPg=0&Increment=50&submit=Search

>  <Ligand HET ID in PDB>  (1) 


>  <PDB ID(s) for Ligand-Target Complex>  (1) 


>  <PubChem CID of Ligand>  (1) 
10390316

>  <PubChem SID of Ligand>  (1) 
103917368

>  <ChEBI ID of Ligand>  (1) 


>  <ChEMBL ID of Ligand>  (1) 
CHEMBL132115

>  <DrugBank ID of Ligand>  (1) 


>  <IUPHAR_GRAC ID of Ligand>  (1) 


>  <KEGG ID of Ligand>  (1) 


>  <ZINC ID of Ligand>  (1) 
ZINC13728686

>  <Number of Protein Chains in Target (bigger than 1 implies a multichain complex)>  (1) 
1

>  <BindingDB Target Chain Sequence>  (1) 
MILNSSTEDGIKRIQDDCPKAGRHSYIFVMIPTLYSIIFVVGIFGNSLVVIVIYFYMKLKTVASVFLLNLALADICFLLTLPLWAVYTAMEYRWPFGNYLCKIASASVSFNLYASVFLLTCLSIDRYLAIVHPMKSRLRRTMLVAKVTCVIIWLMAGLASLPAVIHRNVFFIENTNITVCAFHYESQNSTLPIGLGLTKNILGFMFPFLIILTSYTLIWKALKKAYEIQKNKPRNDDIFKIIMAIVLFFFFSWVPHQIFTFLDVLIQLGIIHDCKISDIVDTAMPITICIAYFNNCLNPLFYGFLGKKFKKYFLQLLKYIPPKAKSHSTLSTKMSTLSYRPSDNVSSSAKKPVQCFEVE

>  <PDB ID(s) of Target Chain>  (1) 
4ZUD

>  <UniProt (SwissProt) Recommended Name of Target Chain>  (1) 
Type-1 angiotensin II receptor

>  <UniProt (SwissProt) Entry Name of Target Chain>  (1) 
AGTR1_CAVPO

>  <UniProt (SwissProt) Primary ID of Target Chain>  (1) 
Q9WV26

>  <UniProt (SwissProt) Secondary ID(s) of Target Chain>  (1) 


>  <UniProt (SwissProt) Alternative ID(s) of Target Chain>  (1) 


>  <UniProt (TrEMBL) Submitted Name of Target Chain>  (1) 


>  <UniProt (TrEMBL) Entry Name of Target Chain>  (1) 


>  <UniProt (TrEMBL) Primary ID of Target Chain>  (1) 


>  <UniProt (TrEMBL) Secondary ID(s) of Target Chain>  (1) 


>  <UniProt (TrEMBL) Alternative ID(s) of Target Chain>  (1) 


$$$$
