
     RDKit          2D

 42 48  0  0  1  0  0  0  0  0999 V2000
    6.9417   -1.5917    0.0000 N   0  0  0  0  0  0  0  0  0  0  0  0
    6.2292   -2.0042    0.0000 C   0  0  0  0  0  0  0  0  0  0  0  0
    5.5167   -1.5917    0.0000 C   0  0  0  0  0  0  0  0  0  0  0  0
    6.9417   -0.7625    0.0000 C   0  0  0  0  0  0  0  0  0  0  0  0
    6.2250   -0.3542    0.0000 N   0  0  0  0  0  0  0  0  0  0  0  0
    9.1042   -5.2792    0.0000 C   0  0  0  0  0  0  0  0  0  0  0  0
   10.3292   -4.5625    0.0000 N   0  0  0  0  0  0  0  0  0  0  0  0
    9.5125   -4.5625    0.0000 N   0  0  0  0  0  0  0  0  0  0  0  0
   10.7417   -5.2750    0.0000 N   0  0  0  0  0  0  0  0  0  0  0  0
    5.5167   -0.7667    0.0000 C   0  0  0  0  0  0  0  0  0  0  0  0
    2.4625   -2.9917    0.0000 N   0  0  0  0  0  0  0  0  0  0  0  0
    3.2750   -2.8292    0.0000 O   0  0  0  0  0  0  0  0  0  0  0  0
    9.8167   -5.6917    0.0000 N   0  0  0  0  0  0  0  0  0  0  0  0
    4.8000   -2.0125    0.0000 C   0  0  0  0  0  0  0  0  0  0  0  0
    3.3667   -2.0042    0.0000 C   0  0  0  0  0  0  0  0  0  0  0  0
    8.3917   -5.7000    0.0000 C   0  0  0  0  0  0  0  0  0  0  0  0
    7.6792   -5.2917    0.0000 C   0  0  0  0  0  0  0  0  0  0  0  0
    2.6167   -1.6667    0.0000 C   0  0  0  0  0  0  0  0  0  0  0  0
    4.0875   -1.6000    0.0000 C   0  0  0  0  0  0  0  0  0  0  0  0
    2.0542   -2.2792    0.0000 C   0  0  0  0  0  0  0  0  0  0  0  0
    7.6625   -2.0000    0.0000 C   0  0  0  0  0  0  0  0  0  0  0  0
    6.2292   -2.8292    0.0000 O   0  0  0  0  0  0  0  0  0  0  0  0
    7.6750   -4.4667    0.0000 C   0  0  0  0  0  0  0  0  0  0  0  0
    4.8000   -0.3542    0.0000 C   0  0  0  0  0  0  0  0  0  0  0  0
    4.0875   -0.7750    0.0000 C   0  0  0  0  0  0  0  0  0  0  0  0
    6.9542   -4.0625    0.0000 C   0  0  0  0  0  0  0  0  0  0  0  0
    8.3875   -4.0542    0.0000 C   0  0  0  0  0  0  0  0  0  0  0  0
    7.6667   -2.8250    0.0000 C   0  0  0  0  0  0  0  0  0  0  0  0
    7.6542   -0.3417    0.0000 C   0  0  0  0  0  0  0  0  0  0  0  0
    8.3792   -3.2292    0.0000 C   0  0  0  0  0  0  0  0  0  0  0  0
    6.9542   -3.2375    0.0000 C   0  0  0  0  0  0  0  0  0  0  0  0
    2.0417   -3.7042    0.0000 C   0  0  0  0  0  0  0  0  0  0  0  0
    8.4000   -6.5167    0.0000 C   0  0  0  0  0  0  0  0  0  0  0  0
    6.9667   -5.7042    0.0000 C   0  0  0  0  0  0  0  0  0  0  0  0
    1.2375   -2.2667    0.0000 C   0  0  0  0  0  0  0  0  0  0  0  0
    8.3667   -0.7542    0.0000 C   0  0  0  0  0  0  0  0  0  0  0  0
    9.0792   -0.3375    0.0000 C   0  0  0  0  0  0  0  0  0  0  0  0
    1.2167   -3.6917    0.0000 C   0  0  0  0  0  0  0  0  0  0  0  0
    6.9667   -6.5292    0.0000 C   0  0  0  0  0  0  0  0  0  0  0  0
    7.6875   -6.9417    0.0000 C   0  0  0  0  0  0  0  0  0  0  0  0
    9.8000   -0.7417    0.0000 C   0  0  0  0  0  0  0  0  0  0  0  0
    0.8167   -2.9792    0.0000 C   0  0  0  0  0  0  0  0  0  0  0  0
  2  1  1  0
  3  2  1  0
  4  1  1  0
  5  4  2  0
  6 16  1  0
  7  8  1  0
  8  6  1  0
  9 13  1  0
 10  5  1  0
 11 12  1  0
 15 12  1  0
 13  6  2  0
 14  3  2  0
 15 19  1  1
 16 17  1  0
 17 23  1  0
 15 18  1  0
 19 14  1  0
 20 18  1  6
 21  1  1  0
 22  2  2  0
 23 26  2  0
 24 10  2  0
 25 24  1  0
 26 31  1  0
 27 30  2  0
 28 21  1  0
 29  4  1  0
 30 28  1  0
 31 28  2  0
 32 11  1  0
 33 16  2  0
 34 17  2  0
 20 35  1  0
 36 29  1  0
 37 36  1  0
 38 32  1  0
 39 34  1  0
 40 39  2  0
 41 37  1  0
 42 35  1  0
 10  3  1  0
 27 23  1  0
 25 19  2  0
 20 11  1  0
 40 33  1  0
 42 38  1  0
  7  9  2  0
M  END
>  <From>  (1) 
www.bindingDB.org

>  <BindingDB Reactant_set_id>  (1) 
50468357

>  <Ligand InChI>  (1) 
InChI=1S/C33H35N7O2/c1-2-3-11-31-34-29-17-16-24(30-20-25-8-6-7-18-40(25)42-30)19-28(29)33(41)39(31)21-22-12-14-23(15-13-22)26-9-4-5-10-27(26)32-35-37-38-36-32/h4-5,9-10,12-17,19,25,30H,2-3,6-8,11,18,20-21H2,1H3,(H,35,36,37,38)/t25-,30+/m1/s1

>  <Ligand InChI Key>  (1) 
CAWNZVPASQNMIX-RNAHPLFWSA-N

>  <BindingDB MonomerID>  (1) 
50282802

>  <BindingDB Ligand Name>  (1) 
2-Butyl-6-(2S,3aR)-hexahydro-isoxazolo[2,3-a]pyridin-2-yl-3-[2'-(1H-tetrazol-5-yl)-biphenyl-4-ylmethyl]-3H-quinazolin-4-one::CHEMBL295695

>  <Target Name>  (1) 
Type-1 angiotensin II receptor

>  <Target Source Organism According to Curator or DataSource>  (1) 
Bos taurus

>  <Ki (nM)>  (1) 


>  <IC50 (nM)>  (1) 
 38

>  <Kd (nM)>  (1) 


>  <EC50 (nM)>  (1) 


>  <kon (M-1-s-1)>  (1) 


>  <koff (s-1)>  (1) 


>  <pH>  (1) 


>  <Temp C>  (1) 


>  <Curation/DataSource>  (1) 
ChEMBL

>  <Article DOI>  (1) 
10.1016/S0960-894X(00)80365-0

>  <BindingDB Entry DOI>  (1) 
10.7270/Q2JS9QB3

>  <PMID>  (1) 


>  <PubChem AID>  (1) 


>  <Patent Number>  (1) 


>  <Authors>  (1) 
Levin, JI; Chan, PS; Coupet, J; Bailey, TK; Vice, G; Thibault, L; F., L; Venkatesan, AM; Cobuzzi, A

>  <Institution>  (1) 
TBA

>  <Link to Ligand in BindingDB>  (1) 
http://www.bindingdb.org/bind/chemsearch/marvin/MolStructure.jsp?monomerid=50282802

>  <Link to Ligand-Target Pair in BindingDB>  (1) 
http://www.bindingdb.org/jsp/dbsearch/PrimarySearch_ki.jsp?energyterm=kJ/mole&tag=r21&monomerid=50282802&enzyme=Type-1+angiotensin+II+receptor&column=ki&startPg=0&Increment=50&submit=Search

>  <Ligand HET ID in PDB>  (1) 


>  <PDB ID(s) for Ligand-Target Complex>  (1) 


>  <PubChem CID of Ligand>  (1) 
15229102

>  <PubChem SID of Ligand>  (1) 
104124476

>  <ChEBI ID of Ligand>  (1) 


>  <ChEMBL ID of Ligand>  (1) 
CHEMBL295695

>  <DrugBank ID of Ligand>  (1) 


>  <IUPHAR_GRAC ID of Ligand>  (1) 


>  <KEGG ID of Ligand>  (1) 


>  <ZINC ID of Ligand>  (1) 
ZINC29409191

>  <Number of Protein Chains in Target (bigger than 1 implies a multichain complex)>  (1) 
1

>  <BindingDB Target Chain Sequence>  (1) 
MILNSSTEDGIKRIQDDCPKAGRHNYIFIMIPTLYSIIFVVGIFGNSLVVIVIYFYMKLKTVASVFLLNLALADLCFLLTLPLWAVYTAMEYRWPFGNYLCKIASASVSFNLYASVFLLTCLSIDRYLAIVHPMKSRLRRTMLVAKVTCIIIWLLAGLASLPTIIHRNVFFIENTNITVCAFHYESQNSTLPVGLGLTKNILGFLFPFLIILTSYTLIWKTLKKAYEIQKNKPRKDDIFKIILAIVLFFFFSWVPHQIFTFMDVLIQLGLIRDCKIEDIVDTAMPITICLAYFNNCLNPLFYGFLGKKFKKYFLQLLKYIPPKAKSHSNLSTKMSTLSYRPSENGNSSTKKPAPCIEVE

>  <PDB ID(s) of Target Chain>  (1) 


>  <UniProt (SwissProt) Recommended Name of Target Chain>  (1) 
Type-1 angiotensin II receptor

>  <UniProt (SwissProt) Entry Name of Target Chain>  (1) 
AGTR1_BOVIN

>  <UniProt (SwissProt) Primary ID of Target Chain>  (1) 
P25104

>  <UniProt (SwissProt) Secondary ID(s) of Target Chain>  (1) 


>  <UniProt (SwissProt) Alternative ID(s) of Target Chain>  (1) 


>  <UniProt (TrEMBL) Submitted Name of Target Chain>  (1) 


>  <UniProt (TrEMBL) Entry Name of Target Chain>  (1) 


>  <UniProt (TrEMBL) Primary ID of Target Chain>  (1) 


>  <UniProt (TrEMBL) Secondary ID(s) of Target Chain>  (1) 


>  <UniProt (TrEMBL) Alternative ID(s) of Target Chain>  (1) 


$$$$
