
     RDKit          2D

 38 42  0  0  0  0  0  0  0  0999 V2000
    2.0445   -3.7218    0.0000 N   0  0  0  0  0  0  0  0  0  0  0  0
    2.7079   -3.2294    0.0000 C   0  0  0  0  0  0  0  0  0  0  0  0
    2.4576   -2.4450    0.0000 N   0  0  0  0  0  0  0  0  0  0  0  0
    1.6314   -2.4450    0.0000 N   0  0  0  0  0  0  0  0  0  0  0  0
    5.6077   -4.9485    0.0000 C   0  0  0  0  0  0  0  0  0  0  0  0
    5.1738   -3.6800    0.0000 N   0  0  0  0  0  0  0  0  0  0  0  0
    4.9318   -4.4728    0.0000 N   0  0  0  0  0  0  0  0  0  0  0  0
    6.0082   -3.6717    0.0000 N   0  0  0  0  0  0  0  0  0  0  0  0
    1.3769   -3.2336    0.0000 C   0  0  0  0  0  0  0  0  0  0  0  0
    6.2711   -4.4603    0.0000 N   0  0  0  0  0  0  0  0  0  0  0  0
    5.6119   -5.7829    0.0000 C   0  0  0  0  0  0  0  0  0  0  0  0
    4.9067   -6.2002    0.0000 C   0  0  0  0  0  0  0  0  0  0  0  0
    3.5340   -3.2294    0.0000 S   0  0  0  0  0  0  0  0  0  0  0  0
    2.2823    0.3212    0.0000 C   0  0  0  0  0  0  0  0  0  0  0  0
    2.0445   -4.5479    0.0000 C   0  0  0  0  0  0  0  0  0  0  0  0
    4.1849   -5.7871    0.0000 C   0  0  0  0  0  0  0  0  0  0  0  0
    2.7037   -0.3922    0.0000 C   0  0  0  0  0  0  0  0  0  0  0  0
    1.4562    0.3129    0.0000 O   0  0  0  0  0  0  0  0  0  0  0  0
    3.4798   -6.1960    0.0000 C   0  0  0  0  0  0  0  0  0  0  0  0
    4.1849   -4.9568    0.0000 C   0  0  0  0  0  0  0  0  0  0  0  0
    3.5215   -0.3880    0.0000 C   0  0  0  0  0  0  0  0  0  0  0  0
    2.2948   -1.1057    0.0000 C   0  0  0  0  0  0  0  0  0  0  0  0
    2.7580   -4.9568    0.0000 C   0  0  0  0  0  0  0  0  0  0  0  0
    3.9471   -2.5076    0.0000 C   0  0  0  0  0  0  0  0  0  0  0  0
    2.6829    1.0472    0.0000 O   0  0  0  0  0  0  0  0  0  0  0  0
    3.5298   -1.8025    0.0000 C   0  0  0  0  0  0  0  0  0  0  0  0
    2.7580   -5.7871    0.0000 C   0  0  0  0  0  0  0  0  0  0  0  0
    3.4715   -4.5437    0.0000 C   0  0  0  0  0  0  0  0  0  0  0  0
    2.7162   -1.8150    0.0000 C   0  0  0  0  0  0  0  0  0  0  0  0
    3.9346   -1.0932    0.0000 C   0  0  0  0  0  0  0  0  0  0  0  0
    0.5508   -3.2336    0.0000 C   0  0  0  0  0  0  0  0  0  0  0  0
    6.3254   -6.1877    0.0000 C   0  0  0  0  0  0  0  0  0  0  0  0
    4.8984   -7.0221    0.0000 C   0  0  0  0  0  0  0  0  0  0  0  0
    0.1377   -2.5159    0.0000 C   0  0  0  0  0  0  0  0  0  0  0  0
   -0.6884   -2.5159    0.0000 C   0  0  0  0  0  0  0  0  0  0  0  0
    5.6119   -7.4352    0.0000 C   0  0  0  0  0  0  0  0  0  0  0  0
    6.3337   -7.0221    0.0000 C   0  0  0  0  0  0  0  0  0  0  0  0
   -1.1015   -1.7942    0.0000 C   0  0  0  0  0  0  0  0  0  0  0  0
  2  1  1  0
  3  2  2  0
  4  9  2  0
  5 11  1  0
  6  7  1  0
  7  5  1  0
  8 10  1  0
  9  1  1  0
 10  5  2  0
 11 12  1  0
 12 16  1  0
 13  2  1  0
 14 17  1  0
 15  1  1  0
 16 20  2  0
 17 21  2  0
 18 14  2  0
 19 27  2  0
 20 28  1  0
 21 30  1  0
 22 29  2  0
 23 15  1  0
 24 13  1  0
 25 14  1  0
 26 24  1  0
 27 23  1  0
 28 23  2  0
 29 26  1  0
 30 26  2  0
 31  9  1  0
 32 11  2  0
 33 12  2  0
 34 31  1  0
 35 34  1  0
 36 33  1  0
 37 36  2  0
 38 35  1  0
  3  4  1  0
 19 16  1  0
 22 17  1  0
 32 37  1  0
  8  6  2  0
M  END
>  <From>  (1) 
www.bindingDB.org

>  <BindingDB Reactant_set_id>  (1) 
50034917

>  <Ligand InChI>  (1) 
InChI=1S/C28H27N7O2S/c1-2-3-8-25-29-32-28(38-18-20-11-15-22(16-12-20)27(36)37)35(25)17-19-9-13-21(14-10-19)23-6-4-5-7-24(23)26-30-33-34-31-26/h4-7,9-16H,2-3,8,17-18H2,1H3,(H,36,37)(H,30,31,33,34)

>  <Ligand InChI Key>  (1) 
BPJXTVAXRBARAT-UHFFFAOYSA-N

>  <BindingDB MonomerID>  (1) 
50047814

>  <BindingDB Ligand Name>  (1) 
4-{5-Butyl-4-[2'-(1H-tetrazol-5-yl)-biphenyl-4-ylmethyl]-4H-[1,2,4]triazol-3-ylsulfanylmethyl}-benzoic acid::CHEMBL155008

>  <Target Name>  (1) 
Type-1 angiotensin II receptor

>  <Target Source Organism According to Curator or DataSource>  (1) 
Oryctolagus cuniculus

>  <Ki (nM)>  (1) 


>  <IC50 (nM)>  (1) 
 24

>  <Kd (nM)>  (1) 


>  <EC50 (nM)>  (1) 


>  <kon (M-1-s-1)>  (1) 


>  <koff (s-1)>  (1) 


>  <pH>  (1) 


>  <Temp C>  (1) 


>  <Curation/DataSource>  (1) 
ChEMBL

>  <Article DOI>  (1) 
10.1021/jm00057a009

>  <BindingDB Entry DOI>  (1) 
10.7270/Q2P55MKH

>  <PMID>  (1) 
8496939

>  <PubChem AID>  (1) 


>  <Patent Number>  (1) 


>  <Authors>  (1) 
Ashton, WT; Cantone, CL; Chang, LL; Hutchins, SM; Strelitz, RA; MacCoss, M; Chang, RS; Lotti, VJ; Faust, KA; Chen, TB

>  <Institution>  (1) 
Merck Research Laboratories

>  <Link to Ligand in BindingDB>  (1) 
http://www.bindingdb.org/bind/chemsearch/marvin/MolStructure.jsp?monomerid=50047814

>  <Link to Ligand-Target Pair in BindingDB>  (1) 
http://www.bindingdb.org/jsp/dbsearch/PrimarySearch_ki.jsp?energyterm=kJ/mole&tag=r21&monomerid=50047814&enzyme=Type-1+angiotensin+II+receptor&column=ki&startPg=0&Increment=50&submit=Search

>  <Ligand HET ID in PDB>  (1) 


>  <PDB ID(s) for Ligand-Target Complex>  (1) 


>  <PubChem CID of Ligand>  (1) 
10436877

>  <PubChem SID of Ligand>  (1) 
103978378

>  <ChEBI ID of Ligand>  (1) 


>  <ChEMBL ID of Ligand>  (1) 
CHEMBL155008

>  <DrugBank ID of Ligand>  (1) 


>  <IUPHAR_GRAC ID of Ligand>  (1) 


>  <KEGG ID of Ligand>  (1) 


>  <ZINC ID of Ligand>  (1) 
ZINC13825659

>  <Number of Protein Chains in Target (bigger than 1 implies a multichain complex)>  (1) 
1

>  <BindingDB Target Chain Sequence>  (1) 
MMLNSSTEDGIKRIQDDCPKAGRHNYIFVMIPTLYSIIFVVGIFGNSLAVIVIYFYMKLKTVASVFLLNLALADLCFLLTLPLWAVYTAMEYRWPFGNYLCKIASASVSFNLYASVFLLTCLSIDRYLAIVHPMKSRLRRTMLVAKVTCIIIWLLAGLASLPAIIHRNVFFIENTNITVCAFHYESQNSTLPIGLGLTKNILGFLFPFLIILTSYTLIWKALKKAYEIQKNKPRNDDIFKIIMAIVLFFFFSWVPHQIFTFLDVLIQLGVIHDCRIADIVDTAMPITICIAYFNNCLNPLFYGFLGKKFKKYFLQLLKYIPPKAKSHSNLSTKMSTLSYRPSDNVSSSSKKPVPCFEVE

>  <PDB ID(s) of Target Chain>  (1) 
6DO1,6OS0,6OS1,6OS2

>  <UniProt (SwissProt) Recommended Name of Target Chain>  (1) 
Type-1 angiotensin II receptor

>  <UniProt (SwissProt) Entry Name of Target Chain>  (1) 
AGTR1_RABIT

>  <UniProt (SwissProt) Primary ID of Target Chain>  (1) 
P34976

>  <UniProt (SwissProt) Secondary ID(s) of Target Chain>  (1) 


>  <UniProt (SwissProt) Alternative ID(s) of Target Chain>  (1) 


>  <UniProt (TrEMBL) Submitted Name of Target Chain>  (1) 


>  <UniProt (TrEMBL) Entry Name of Target Chain>  (1) 


>  <UniProt (TrEMBL) Primary ID of Target Chain>  (1) 


>  <UniProt (TrEMBL) Secondary ID(s) of Target Chain>  (1) 


>  <UniProt (TrEMBL) Alternative ID(s) of Target Chain>  (1) 


$$$$
