
     RDKit          2D

 39 43  0  0  0  0  0  0  0  0999 V2000
    2.9750   -3.5917    0.0000 S   0  0  0  0  0  0  0  0  0  0  0  0
   -0.5750   -2.3542    0.0000 N   0  0  0  0  0  0  0  0  0  0  0  0
   -1.3708   -2.1042    0.0000 C   0  0  0  0  0  0  0  0  0  0  0  0
   -0.5833   -1.0125    0.0000 N   0  0  0  0  0  0  0  0  0  0  0  0
   -0.0958   -1.6792    0.0000 C   0  0  0  0  0  0  0  0  0  0  0  0
   -1.3708   -1.2750    0.0000 C   0  0  0  0  0  0  0  0  0  0  0  0
    2.9667   -2.7667    0.0000 N   0  0  0  0  0  0  0  0  0  0  0  0
    2.9792   -4.4167    0.0000 C   0  0  0  0  0  0  0  0  0  0  0  0
   -2.0875   -2.5167    0.0000 N   0  0  0  0  0  0  0  0  0  0  0  0
    2.2667   -4.8292    0.0000 C   0  0  0  0  0  0  0  0  0  0  0  0
   -2.0875   -0.8625    0.0000 C   0  0  0  0  0  0  0  0  0  0  0  0
    3.6792   -2.3500    0.0000 C   0  0  0  0  0  0  0  0  0  0  0  0
    3.6875   -3.1792    0.0000 O   0  0  0  0  0  0  0  0  0  0  0  0
    2.2542   -3.1792    0.0000 O   0  0  0  0  0  0  0  0  0  0  0  0
   -0.5833   -3.1792    0.0000 C   0  0  0  0  0  0  0  0  0  0  0  0
    1.5542   -4.4167    0.0000 C   0  0  0  0  0  0  0  0  0  0  0  0
   -2.8000   -2.1042    0.0000 C   0  0  0  0  0  0  0  0  0  0  0  0
   -2.8000   -1.2750    0.0000 C   0  0  0  0  0  0  0  0  0  0  0  0
    4.3917   -2.7542    0.0000 O   0  0  0  0  0  0  0  0  0  0  0  0
    0.8375   -4.8292    0.0000 C   0  0  0  0  0  0  0  0  0  0  0  0
    1.5500   -3.5917    0.0000 C   0  0  0  0  0  0  0  0  0  0  0  0
    0.1292   -3.5917    0.0000 C   0  0  0  0  0  0  0  0  0  0  0  0
    3.6667   -1.5250    0.0000 C   0  0  0  0  0  0  0  0  0  0  0  0
    0.7292   -1.6750    0.0000 C   0  0  0  0  0  0  0  0  0  0  0  0
    0.1292   -4.4167    0.0000 C   0  0  0  0  0  0  0  0  0  0  0  0
    0.8417   -3.1792    0.0000 C   0  0  0  0  0  0  0  0  0  0  0  0
    4.3792   -1.1042    0.0000 C   0  0  0  0  0  0  0  0  0  0  0  0
    3.6917   -4.8292    0.0000 C   0  0  0  0  0  0  0  0  0  0  0  0
    2.2667   -5.6542    0.0000 C   0  0  0  0  0  0  0  0  0  0  0  0
   -2.0958   -0.0292    0.0000 C   0  0  0  0  0  0  0  0  0  0  0  0
    4.3750   -0.2792    0.0000 C   0  0  0  0  0  0  0  0  0  0  0  0
   -3.5208   -2.5167    0.0000 C   0  0  0  0  0  0  0  0  0  0  0  0
    5.0375    0.2083    0.0000 C   0  0  0  0  0  0  0  0  0  0  0  0
    3.7042    0.1958    0.0000 C   0  0  0  0  0  0  0  0  0  0  0  0
    1.1417   -0.9542    0.0000 C   0  0  0  0  0  0  0  0  0  0  0  0
    3.6917   -5.6542    0.0000 C   0  0  0  0  0  0  0  0  0  0  0  0
    2.9792   -6.0667    0.0000 C   0  0  0  0  0  0  0  0  0  0  0  0
    3.9542    0.9833    0.0000 C   0  0  0  0  0  0  0  0  0  0  0  0
    4.7792    0.9875    0.0000 C   0  0  0  0  0  0  0  0  0  0  0  0
  2 15  1  0
  3  2  1  0
  4  5  2  0
  5  2  1  0
  6  3  2  0
  7  1  1  0
  8  1  1  0
  9  3  1  0
 10  8  1  0
 11  6  1  0
 12  7  1  0
 13  1  2  0
 14  1  2  0
 15 22  1  0
 16 10  1  0
 17  9  2  0
 18 17  1  0
 19 12  2  0
 20 16  2  0
 21 16  1  0
 22 26  1  0
 23 12  1  0
 24  5  1  0
 25 20  1  0
 26 21  2  0
 27 23  1  0
 28  8  2  0
 29 10  2  0
 30 11  1  0
 31 27  1  0
 32 17  1  0
 33 31  1  0
 34 31  1  0
 35 24  1  0
 36 28  1  0
 37 36  2  0
 38 34  1  0
 39 33  1  0
 37 29  1  0
 25 22  2  0
 38 39  1  0
  6  4  1  0
 18 11  2  0
M  END
>  <From>  (1) 
www.bindingDB.org

>  <BindingDB Reactant_set_id>  (1) 
50467407

>  <Ligand InChI>  (1) 
InChI=1S/C31H36N4O3S/c1-4-28-33-30-21(2)19-22(3)32-31(30)35(28)20-24-13-16-25(17-14-24)26-11-7-8-12-27(26)39(37,38)34-29(36)18-15-23-9-5-6-10-23/h7-8,11-14,16-17,19,23H,4-6,9-10,15,18,20H2,1-3H3,(H,34,36)

>  <Ligand InChI Key>  (1) 
DDHDEBQSQARBLD-UHFFFAOYSA-N

>  <BindingDB MonomerID>  (1) 
50282274

>  <BindingDB Ligand Name>  (1) 
4'-(2-Ethyl-5,7-dimethyl-imidazo[4,5-b]pyridin-3-ylmethyl)-biphenyl-2-sulfonic acid (3-cyclopentyl-propionyl)-amide::CHEMBL68638

>  <Target Name>  (1) 
Type-1 angiotensin II receptor

>  <Target Source Organism According to Curator or DataSource>  (1) 
Oryctolagus cuniculus

>  <Ki (nM)>  (1) 


>  <IC50 (nM)>  (1) 
 0.1

>  <Kd (nM)>  (1) 


>  <EC50 (nM)>  (1) 


>  <kon (M-1-s-1)>  (1) 


>  <koff (s-1)>  (1) 


>  <pH>  (1) 


>  <Temp C>  (1) 


>  <Curation/DataSource>  (1) 
ChEMBL

>  <Article DOI>  (1) 
10.1016/S0960-894X(01)81115-X

>  <BindingDB Entry DOI>  (1) 
10.7270/Q2G73DPF

>  <PMID>  (1) 


>  <PubChem AID>  (1) 


>  <Patent Number>  (1) 


>  <Authors>  (1) 
Mantlo, NB; Kim, D; Ondeyka, D; Chang, RS; Kivlighn, SD; Siegl, PK; Greenlee, WJ

>  <Institution>  (1) 
TBA

>  <Link to Ligand in BindingDB>  (1) 
http://www.bindingdb.org/bind/chemsearch/marvin/MolStructure.jsp?monomerid=50282274

>  <Link to Ligand-Target Pair in BindingDB>  (1) 
http://www.bindingdb.org/jsp/dbsearch/PrimarySearch_ki.jsp?energyterm=kJ/mole&tag=r21&monomerid=50282274&enzyme=Type-1+angiotensin+II+receptor&column=ki&startPg=0&Increment=50&submit=Search

>  <Ligand HET ID in PDB>  (1) 


>  <PDB ID(s) for Ligand-Target Complex>  (1) 


>  <PubChem CID of Ligand>  (1) 
44309719

>  <PubChem SID of Ligand>  (1) 
104123948

>  <ChEBI ID of Ligand>  (1) 


>  <ChEMBL ID of Ligand>  (1) 
CHEMBL68638

>  <DrugBank ID of Ligand>  (1) 


>  <IUPHAR_GRAC ID of Ligand>  (1) 


>  <KEGG ID of Ligand>  (1) 


>  <ZINC ID of Ligand>  (1) 
ZINC26276757

>  <Number of Protein Chains in Target (bigger than 1 implies a multichain complex)>  (1) 
1

>  <BindingDB Target Chain Sequence>  (1) 
MMLNSSTEDGIKRIQDDCPKAGRHNYIFVMIPTLYSIIFVVGIFGNSLAVIVIYFYMKLKTVASVFLLNLALADLCFLLTLPLWAVYTAMEYRWPFGNYLCKIASASVSFNLYASVFLLTCLSIDRYLAIVHPMKSRLRRTMLVAKVTCIIIWLLAGLASLPAIIHRNVFFIENTNITVCAFHYESQNSTLPIGLGLTKNILGFLFPFLIILTSYTLIWKALKKAYEIQKNKPRNDDIFKIIMAIVLFFFFSWVPHQIFTFLDVLIQLGVIHDCRIADIVDTAMPITICIAYFNNCLNPLFYGFLGKKFKKYFLQLLKYIPPKAKSHSNLSTKMSTLSYRPSDNVSSSSKKPVPCFEVE

>  <PDB ID(s) of Target Chain>  (1) 
6DO1,6OS0,6OS1,6OS2

>  <UniProt (SwissProt) Recommended Name of Target Chain>  (1) 
Type-1 angiotensin II receptor

>  <UniProt (SwissProt) Entry Name of Target Chain>  (1) 
AGTR1_RABIT

>  <UniProt (SwissProt) Primary ID of Target Chain>  (1) 
P34976

>  <UniProt (SwissProt) Secondary ID(s) of Target Chain>  (1) 


>  <UniProt (SwissProt) Alternative ID(s) of Target Chain>  (1) 


>  <UniProt (TrEMBL) Submitted Name of Target Chain>  (1) 


>  <UniProt (TrEMBL) Entry Name of Target Chain>  (1) 


>  <UniProt (TrEMBL) Primary ID of Target Chain>  (1) 


>  <UniProt (TrEMBL) Secondary ID(s) of Target Chain>  (1) 


>  <UniProt (TrEMBL) Alternative ID(s) of Target Chain>  (1) 


$$$$
