
     RDKit          2D

 43 49  0  0  1  0  0  0  0  0999 V2000
    6.0167    1.0208    0.0000 N   0  0  0  0  0  0  0  0  0  0  0  0
    5.2917    0.6083    0.0000 C   0  0  0  0  0  0  0  0  0  0  0  0
    4.5792    1.0250    0.0000 C   0  0  0  0  0  0  0  0  0  0  0  0
    2.3542   -0.2167    0.0000 N   0  0  0  0  0  0  0  0  0  0  0  0
    6.0167    1.8500    0.0000 C   0  0  0  0  0  0  0  0  0  0  0  0
    5.2917    2.2708    0.0000 N   0  0  0  0  0  0  0  0  0  0  0  0
    1.6917    0.9458    0.0000 C   0  0  0  0  0  0  0  0  0  0  0  0
    8.1417   -2.6792    0.0000 C   0  0  0  0  0  0  0  0  0  0  0  0
    1.5417   -0.3875    0.0000 O   0  0  0  0  0  0  0  0  0  0  0  0
    9.0417   -1.6875    0.0000 N   0  0  0  0  0  0  0  0  0  0  0  0
    2.4417    0.6000    0.0000 C   0  0  0  0  0  0  0  0  0  0  0  0
    8.2292   -1.8625    0.0000 N   0  0  0  0  0  0  0  0  0  0  0  0
    9.4542   -2.4000    0.0000 N   0  0  0  0  0  0  0  0  0  0  0  0
    1.1417    0.3250    0.0000 C   0  0  0  0  0  0  0  0  0  0  0  0
    4.5792    1.8500    0.0000 C   0  0  0  0  0  0  0  0  0  0  0  0
    3.1542    1.0208    0.0000 C   0  0  0  0  0  0  0  0  0  0  0  0
    3.8667    0.6083    0.0000 C   0  0  0  0  0  0  0  0  0  0  0  0
    8.9042   -3.0125    0.0000 N   0  0  0  0  0  0  0  0  0  0  0  0
    7.4292   -3.1000    0.0000 C   0  0  0  0  0  0  0  0  0  0  0  0
    6.7167   -2.6875    0.0000 C   0  0  0  0  0  0  0  0  0  0  0  0
    1.2667    1.6583    0.0000 C   0  0  0  0  0  0  0  0  0  0  0  0
    6.7292    0.6083    0.0000 C   0  0  0  0  0  0  0  0  0  0  0  0
    5.2917   -0.2167    0.0000 O   0  0  0  0  0  0  0  0  0  0  0  0
    6.7167   -1.8625    0.0000 C   0  0  0  0  0  0  0  0  0  0  0  0
    3.1542    1.8458    0.0000 C   0  0  0  0  0  0  0  0  0  0  0  0
    0.3792    0.6625    0.0000 C   0  0  0  0  0  0  0  0  0  0  0  0
    3.8667    2.2708    0.0000 C   0  0  0  0  0  0  0  0  0  0  0  0
    0.4667    1.4875    0.0000 C   0  0  0  0  0  0  0  0  0  0  0  0
    1.6042    2.4125    0.0000 O   0  0  0  0  0  0  0  0  0  0  0  0
    7.4417   -1.4500    0.0000 C   0  0  0  0  0  0  0  0  0  0  0  0
    6.0042   -1.4500    0.0000 C   0  0  0  0  0  0  0  0  0  0  0  0
    6.7292   -0.2167    0.0000 C   0  0  0  0  0  0  0  0  0  0  0  0
    2.9667   -0.7667    0.0000 C   0  0  0  0  0  0  0  0  0  0  0  0
    6.7292    2.2583    0.0000 C   0  0  0  0  0  0  0  0  0  0  0  0
    7.4417   -0.6250    0.0000 C   0  0  0  0  0  0  0  0  0  0  0  0
    6.0042   -0.6250    0.0000 C   0  0  0  0  0  0  0  0  0  0  0  0
    7.4292   -3.9250    0.0000 C   0  0  0  0  0  0  0  0  0  0  0  0
    6.0042   -3.1000    0.0000 C   0  0  0  0  0  0  0  0  0  0  0  0
    7.4417    1.8458    0.0000 C   0  0  0  0  0  0  0  0  0  0  0  0
    8.1542    2.2583    0.0000 C   0  0  0  0  0  0  0  0  0  0  0  0
    6.7167   -4.3375    0.0000 C   0  0  0  0  0  0  0  0  0  0  0  0
    6.0042   -3.9250    0.0000 C   0  0  0  0  0  0  0  0  0  0  0  0
    8.8667    1.8375    0.0000 C   0  0  0  0  0  0  0  0  0  0  0  0
  2  1  1  0
  3  2  1  0
 11  4  1  0
  5  1  1  0
  6  5  2  0
  7 11  1  0
  8 19  1  0
  9  4  1  0
 10 12  1  0
 11 16  1  1
 12  8  1  0
 13 18  1  0
  7 14  1  0
 15  6  1  0
 16 17  1  0
 17  3  2  0
 18  8  2  0
 19 20  1  0
 20 24  1  0
  7 21  1  1
 22  1  1  0
 23  2  2  0
 24 31  2  0
 25 27  1  0
 14 26  1  1
 27 15  2  0
 28 21  1  0
 29 21  2  0
 30 35  2  0
 31 36  1  0
 32 22  1  0
 33  4  1  0
 34  5  1  0
 35 32  1  0
 36 32  2  0
 37 19  2  0
 38 20  2  0
 39 34  1  0
 40 39  1  0
 41 42  2  0
 42 38  1  0
 43 40  1  0
 15  3  1  0
 30 24  1  0
 25 16  2  0
 14  9  1  0
 28 26  1  0
 41 37  1  0
 13 10  2  0
M  END
>  <From>  (1) 
www.bindingDB.org

>  <BindingDB Reactant_set_id>  (1) 
50468485

>  <Ligand InChI>  (1) 
InChI=1S/C33H33N7O3/c1-3-4-9-29-34-26-15-14-22(31-30-27(41)16-17-28(30)43-39(31)2)18-25(26)33(42)40(29)19-20-10-12-21(13-11-20)23-7-5-6-8-24(23)32-35-37-38-36-32/h5-8,10-15,18,28,30-31H,3-4,9,16-17,19H2,1-2H3,(H,35,36,37,38)/t28-,30+,31+/m0/s1

>  <Ligand InChI Key>  (1) 
TYECQFDFMUOJRO-FAOMPSFFSA-N

>  <BindingDB MonomerID>  (1) 
50282886

>  <BindingDB Ligand Name>  (1) 
2-Butyl-6-((3S,3aS,6aS)-2-methyl-4-oxo-hexahydro-cyclopenta[d]isoxazol-3-yl)-3-[2'-(1H-tetrazol-5-yl)-biphenyl-4-ylmethyl]-3H-quinazolin-4-one::CHEMBL48934

>  <Target Name>  (1) 
Type-1 angiotensin II receptor

>  <Target Source Organism According to Curator or DataSource>  (1) 
Bos taurus

>  <Ki (nM)>  (1) 


>  <IC50 (nM)>  (1) 
 42

>  <Kd (nM)>  (1) 


>  <EC50 (nM)>  (1) 


>  <kon (M-1-s-1)>  (1) 


>  <koff (s-1)>  (1) 


>  <pH>  (1) 


>  <Temp C>  (1) 


>  <Curation/DataSource>  (1) 
ChEMBL

>  <Article DOI>  (1) 
10.1016/S0960-894X(01)80377-2

>  <BindingDB Entry DOI>  (1) 
10.7270/Q21V5DXH

>  <PMID>  (1) 


>  <PubChem AID>  (1) 


>  <Patent Number>  (1) 


>  <Authors>  (1) 
Levin, JI; Venkatesan, AM; Chan, PS; Bailey, TK; Vice, G; Coupet, J

>  <Institution>  (1) 
TBA

>  <Link to Ligand in BindingDB>  (1) 
http://www.bindingdb.org/bind/chemsearch/marvin/MolStructure.jsp?monomerid=50282886

>  <Link to Ligand-Target Pair in BindingDB>  (1) 
http://www.bindingdb.org/jsp/dbsearch/PrimarySearch_ki.jsp?energyterm=kJ/mole&tag=r21&monomerid=50282886&enzyme=Type-1+angiotensin+II+receptor&column=ki&startPg=0&Increment=50&submit=Search

>  <Ligand HET ID in PDB>  (1) 


>  <PDB ID(s) for Ligand-Target Complex>  (1) 


>  <PubChem CID of Ligand>  (1) 
44297216

>  <PubChem SID of Ligand>  (1) 
104124560

>  <ChEBI ID of Ligand>  (1) 


>  <ChEMBL ID of Ligand>  (1) 
CHEMBL48934

>  <DrugBank ID of Ligand>  (1) 


>  <IUPHAR_GRAC ID of Ligand>  (1) 


>  <KEGG ID of Ligand>  (1) 


>  <ZINC ID of Ligand>  (1) 
ZINC29480301

>  <Number of Protein Chains in Target (bigger than 1 implies a multichain complex)>  (1) 
1

>  <BindingDB Target Chain Sequence>  (1) 
MILNSSTEDGIKRIQDDCPKAGRHNYIFIMIPTLYSIIFVVGIFGNSLVVIVIYFYMKLKTVASVFLLNLALADLCFLLTLPLWAVYTAMEYRWPFGNYLCKIASASVSFNLYASVFLLTCLSIDRYLAIVHPMKSRLRRTMLVAKVTCIIIWLLAGLASLPTIIHRNVFFIENTNITVCAFHYESQNSTLPVGLGLTKNILGFLFPFLIILTSYTLIWKTLKKAYEIQKNKPRKDDIFKIILAIVLFFFFSWVPHQIFTFMDVLIQLGLIRDCKIEDIVDTAMPITICLAYFNNCLNPLFYGFLGKKFKKYFLQLLKYIPPKAKSHSNLSTKMSTLSYRPSENGNSSTKKPAPCIEVE

>  <PDB ID(s) of Target Chain>  (1) 


>  <UniProt (SwissProt) Recommended Name of Target Chain>  (1) 
Type-1 angiotensin II receptor

>  <UniProt (SwissProt) Entry Name of Target Chain>  (1) 
AGTR1_BOVIN

>  <UniProt (SwissProt) Primary ID of Target Chain>  (1) 
P25104

>  <UniProt (SwissProt) Secondary ID(s) of Target Chain>  (1) 


>  <UniProt (SwissProt) Alternative ID(s) of Target Chain>  (1) 


>  <UniProt (TrEMBL) Submitted Name of Target Chain>  (1) 


>  <UniProt (TrEMBL) Entry Name of Target Chain>  (1) 


>  <UniProt (TrEMBL) Primary ID of Target Chain>  (1) 


>  <UniProt (TrEMBL) Secondary ID(s) of Target Chain>  (1) 


>  <UniProt (TrEMBL) Alternative ID(s) of Target Chain>  (1) 


$$$$
