
     RDKit          2D

 38 43  0  0  0  0  0  0  0  0999 V2000
    6.5001   -3.3961    0.0000 S   0  0  0  0  0  0  0  0  0  0  0  0
    5.6824   -3.4962    0.0000 N   0  0  0  0  0  0  0  0  0  0  0  0
    5.3361   -2.7411    0.0000 N   0  0  0  0  0  0  0  0  0  0  0  0
    6.6628   -2.5826    0.0000 N   0  0  0  0  0  0  0  0  0  0  0  0
    1.7022   -2.1570    0.0000 N   0  0  0  0  0  0  0  0  0  0  0  0
    2.3656   -1.6689    0.0000 C   0  0  0  0  0  0  0  0  0  0  0  0
    5.9452   -2.1778    0.0000 C   0  0  0  0  0  0  0  0  0  0  0  0
    1.2809   -0.8803    0.0000 N   0  0  0  0  0  0  0  0  0  0  0  0
    1.0305   -1.6689    0.0000 C   0  0  0  0  0  0  0  0  0  0  0  0
    2.1069   -0.8887    0.0000 C   0  0  0  0  0  0  0  0  0  0  0  0
    5.2735   -4.2180    0.0000 C   0  0  0  0  0  0  0  0  0  0  0  0
    3.1666   -1.8399    0.0000 N   0  0  0  0  0  0  0  0  0  0  0  0
    4.5601   -4.6310    0.0000 C   0  0  0  0  0  0  0  0  0  0  0  0
    2.6576   -0.2796    0.0000 C   0  0  0  0  0  0  0  0  0  0  0  0
    6.4959   -4.2222    0.0000 O   0  0  0  0  0  0  0  0  0  0  0  0
    1.7022   -2.9831    0.0000 C   0  0  0  0  0  0  0  0  0  0  0  0
    5.8493   -1.3560    0.0000 C   0  0  0  0  0  0  0  0  0  0  0  0
    3.8467   -4.2222    0.0000 C   0  0  0  0  0  0  0  0  0  0  0  0
    3.7173   -1.2308    0.0000 C   0  0  0  0  0  0  0  0  0  0  0  0
    3.4587   -0.4423    0.0000 C   0  0  0  0  0  0  0  0  0  0  0  0
    3.8425   -3.3919    0.0000 C   0  0  0  0  0  0  0  0  0  0  0  0
    3.1291   -4.6352    0.0000 C   0  0  0  0  0  0  0  0  0  0  0  0
    2.4198   -3.3961    0.0000 C   0  0  0  0  0  0  0  0  0  0  0  0
    0.2420   -1.9275    0.0000 C   0  0  0  0  0  0  0  0  0  0  0  0
    2.4156   -4.2222    0.0000 C   0  0  0  0  0  0  0  0  0  0  0  0
    3.1291   -2.9831    0.0000 C   0  0  0  0  0  0  0  0  0  0  0  0
    5.9870   -4.6227    0.0000 C   0  0  0  0  0  0  0  0  0  0  0  0
    4.5601   -5.4613    0.0000 C   0  0  0  0  0  0  0  0  0  0  0  0
    2.4031    0.5090    0.0000 C   0  0  0  0  0  0  0  0  0  0  0  0
    4.5226   -1.4018    0.0000 C   0  0  0  0  0  0  0  0  0  0  0  0
    6.5210   -0.8678    0.0000 C   0  0  0  0  0  0  0  0  0  0  0  0
    5.0983   -1.0305    0.0000 C   0  0  0  0  0  0  0  0  0  0  0  0
   -0.3713   -1.3768    0.0000 C   0  0  0  0  0  0  0  0  0  0  0  0
    5.9870   -5.4571    0.0000 C   0  0  0  0  0  0  0  0  0  0  0  0
    5.2735   -5.8743    0.0000 C   0  0  0  0  0  0  0  0  0  0  0  0
    4.9982   -0.2170    0.0000 C   0  0  0  0  0  0  0  0  0  0  0  0
    6.4250   -0.0501    0.0000 C   0  0  0  0  0  0  0  0  0  0  0  0
    5.6699    0.2837    0.0000 C   0  0  0  0  0  0  0  0  0  0  0  0
  2  1  1  0
  3  2  1  0
  4  1  1  0
  5 16  1  0
  6  5  1  0
  7  4  2  0
  8  9  2  0
  9  5  1  0
 10  6  2  0
 11  2  1  0
 12  6  1  0
 13 11  1  0
 14 10  1  0
 15  1  2  0
 16 23  1  0
 17  7  1  0
 18 13  1  0
 19 12  2  0
 20 19  1  0
 21 18  2  0
 22 18  1  0
 23 25  1  0
 24  9  1  0
 25 22  2  0
 26 21  1  0
 27 11  2  0
 28 13  2  0
 29 14  1  0
 30 19  1  0
 31 17  2  0
 32 17  1  0
 33 24  1  0
 34 27  1  0
 35 34  2  0
 36 32  2  0
 37 31  1  0
 38 36  1  0
  3  7  1  0
 35 28  1  0
 38 37  2  0
 23 26  2  0
  8 10  1  0
 14 20  2  0
M  END
>  <From>  (1) 
www.bindingDB.org

>  <BindingDB Reactant_set_id>  (1) 
50002602

>  <Ligand InChI>  (1) 
InChI=1S/C30H28N6OS/c1-4-27-32-28-20(2)18-21(3)31-30(28)35(27)19-22-14-16-23(17-15-22)25-12-8-9-13-26(25)36-33-29(34-38(36)37)24-10-6-5-7-11-24/h5-18H,4,19H2,1-3H3,(H,33,34)

>  <Ligand InChI Key>  (1) 
CWBLZOFHSHWZSA-UHFFFAOYSA-N

>  <BindingDB MonomerID>  (1) 
50282384

>  <BindingDB Ligand Name>  (1) 
2-Ethyl-5,7-dimethyl-3-[2'-(1-oxo-4-phenyl-1,5-dihydro-1lambda*4*-[1,2,3,5]thiatriazol-2-yl)-biphenyl-4-ylmethyl]-3H-imidazo[4,5-b]pyridine::CHEMBL139739

>  <Target Name>  (1) 
Type-1 angiotensin II receptor

>  <Target Source Organism According to Curator or DataSource>  (1) 
Oryctolagus cuniculus

>  <Ki (nM)>  (1) 


>  <IC50 (nM)>  (1) 
 57

>  <Kd (nM)>  (1) 


>  <EC50 (nM)>  (1) 


>  <kon (M-1-s-1)>  (1) 


>  <koff (s-1)>  (1) 


>  <pH>  (1) 


>  <Temp C>  (1) 


>  <Curation/DataSource>  (1) 
ChEMBL

>  <Article DOI>  (1) 
10.1016/S0960-894X(01)81119-7

>  <BindingDB Entry DOI>  (1) 
10.7270/Q2X92B6P

>  <PMID>  (1) 


>  <PubChem AID>  (1) 


>  <Patent Number>  (1) 


>  <Authors>  (1) 
Kim, D; Mantlo, NB; Chang, RS; Kivlighn, SD; Greenlee, WJ

>  <Institution>  (1) 
TBA

>  <Link to Ligand in BindingDB>  (1) 
http://www.bindingdb.org/bind/chemsearch/marvin/MolStructure.jsp?monomerid=50282384

>  <Link to Ligand-Target Pair in BindingDB>  (1) 
http://www.bindingdb.org/jsp/dbsearch/PrimarySearch_ki.jsp?energyterm=kJ/mole&tag=r21&monomerid=50282384&enzyme=Type-1+angiotensin+II+receptor&column=ki&startPg=0&Increment=50&submit=Search

>  <Ligand HET ID in PDB>  (1) 


>  <PDB ID(s) for Ligand-Target Complex>  (1) 


>  <PubChem CID of Ligand>  (1) 
44358303

>  <PubChem SID of Ligand>  (1) 
104124058

>  <ChEBI ID of Ligand>  (1) 


>  <ChEMBL ID of Ligand>  (1) 
CHEMBL139739

>  <DrugBank ID of Ligand>  (1) 


>  <IUPHAR_GRAC ID of Ligand>  (1) 


>  <KEGG ID of Ligand>  (1) 


>  <ZINC ID of Ligand>  (1) 
ZINC27517724

>  <Number of Protein Chains in Target (bigger than 1 implies a multichain complex)>  (1) 
1

>  <BindingDB Target Chain Sequence>  (1) 
MMLNSSTEDGIKRIQDDCPKAGRHNYIFVMIPTLYSIIFVVGIFGNSLAVIVIYFYMKLKTVASVFLLNLALADLCFLLTLPLWAVYTAMEYRWPFGNYLCKIASASVSFNLYASVFLLTCLSIDRYLAIVHPMKSRLRRTMLVAKVTCIIIWLLAGLASLPAIIHRNVFFIENTNITVCAFHYESQNSTLPIGLGLTKNILGFLFPFLIILTSYTLIWKALKKAYEIQKNKPRNDDIFKIIMAIVLFFFFSWVPHQIFTFLDVLIQLGVIHDCRIADIVDTAMPITICIAYFNNCLNPLFYGFLGKKFKKYFLQLLKYIPPKAKSHSNLSTKMSTLSYRPSDNVSSSSKKPVPCFEVE

>  <PDB ID(s) of Target Chain>  (1) 
6DO1,6OS0,6OS1,6OS2

>  <UniProt (SwissProt) Recommended Name of Target Chain>  (1) 
Type-1 angiotensin II receptor

>  <UniProt (SwissProt) Entry Name of Target Chain>  (1) 
AGTR1_RABIT

>  <UniProt (SwissProt) Primary ID of Target Chain>  (1) 
P34976

>  <UniProt (SwissProt) Secondary ID(s) of Target Chain>  (1) 


>  <UniProt (SwissProt) Alternative ID(s) of Target Chain>  (1) 


>  <UniProt (TrEMBL) Submitted Name of Target Chain>  (1) 


>  <UniProt (TrEMBL) Entry Name of Target Chain>  (1) 


>  <UniProt (TrEMBL) Primary ID of Target Chain>  (1) 


>  <UniProt (TrEMBL) Secondary ID(s) of Target Chain>  (1) 


>  <UniProt (TrEMBL) Alternative ID(s) of Target Chain>  (1) 


$$$$
