
     RDKit          2D

 32 34  0  0  0  0  0  0  0  0999 V2000
    1.1417   -1.7042    0.0000 N   0  0  0  0  0  0  0  0  0  0  0  0
    1.8042   -1.2167    0.0000 C   0  0  0  0  0  0  0  0  0  0  0  0
    1.5542   -0.4292    0.0000 N   0  0  0  0  0  0  0  0  0  0  0  0
    0.7292   -0.4292    0.0000 N   0  0  0  0  0  0  0  0  0  0  0  0
    0.4750   -1.2167    0.0000 C   0  0  0  0  0  0  0  0  0  0  0  0
    4.7125   -3.7667    0.0000 C   0  0  0  0  0  0  0  0  0  0  0  0
    5.4292   -4.1792    0.0000 C   0  0  0  0  0  0  0  0  0  0  0  0
    6.1375   -3.7667    0.0000 C   0  0  0  0  0  0  0  0  0  0  0  0
    6.1292   -2.9375    0.0000 C   0  0  0  0  0  0  0  0  0  0  0  0
    4.0000   -4.1792    0.0000 N   0  0  0  0  0  0  0  0  0  0  0  0
    1.1417   -2.5292    0.0000 C   0  0  0  0  0  0  0  0  0  0  0  0
    4.7125   -2.9417    0.0000 O   0  0  0  0  0  0  0  0  0  0  0  0
    5.4125   -2.5292    0.0000 O   0  0  0  0  0  0  0  0  0  0  0  0
    2.6292   -1.2167    0.0000 S   0  0  0  0  0  0  0  0  0  0  0  0
    3.2792   -3.7667    0.0000 C   0  0  0  0  0  0  0  0  0  0  0  0
    1.8542   -2.9417    0.0000 C   0  0  0  0  0  0  0  0  0  0  0  0
    6.8417   -2.5167    0.0000 O   0  0  0  0  0  0  0  0  0  0  0  0
    3.2792   -2.9417    0.0000 C   0  0  0  0  0  0  0  0  0  0  0  0
    2.5750   -4.1792    0.0000 C   0  0  0  0  0  0  0  0  0  0  0  0
    1.8542   -3.7667    0.0000 C   0  0  0  0  0  0  0  0  0  0  0  0
    2.5667   -2.5292    0.0000 C   0  0  0  0  0  0  0  0  0  0  0  0
   -0.3500   -1.2167    0.0000 C   0  0  0  0  0  0  0  0  0  0  0  0
    5.4250   -5.0042    0.0000 C   0  0  0  0  0  0  0  0  0  0  0  0
    6.8500   -4.1750    0.0000 C   0  0  0  0  0  0  0  0  0  0  0  0
    4.2792    0.2208    0.0000 O   0  0  0  0  0  0  0  0  0  0  0  0
    3.0417   -0.5000    0.0000 C   0  0  0  0  0  0  0  0  0  0  0  0
    3.8667   -0.4917    0.0000 C   0  0  0  0  0  0  0  0  0  0  0  0
   -0.7625   -0.5042    0.0000 C   0  0  0  0  0  0  0  0  0  0  0  0
   -1.5875   -0.5042    0.0000 C   0  0  0  0  0  0  0  0  0  0  0  0
    6.1375   -5.4167    0.0000 C   0  0  0  0  0  0  0  0  0  0  0  0
    6.8542   -5.0042    0.0000 C   0  0  0  0  0  0  0  0  0  0  0  0
   -2.0000    0.2125    0.0000 C   0  0  0  0  0  0  0  0  0  0  0  0
  2  1  1  0
  3  2  2  0
  4  5  2  0
  5  1  1  0
  6 10  1  0
  7  6  1  0
  8  7  2  0
  9  8  1  0
 10 15  1  0
 11  1  1  0
 12  6  2  0
 13  9  2  0
 14  2  1  0
 15 18  2  0
 16 11  1  0
 17  9  1  0
 18 21  1  0
 19 20  2  0
 20 16  1  0
 21 16  2  0
 22  5  1  0
 23  7  1  0
 24  8  1  0
 25 27  1  0
 26 14  1  0
 27 26  1  0
 28 22  1  0
 29 28  1  0
 30 23  2  0
 31 30  1  0
 32 29  1  0
  3  4  1  0
 19 15  1  0
 24 31  2  0
M  END
>  <From>  (1) 
www.bindingDB.org

>  <BindingDB Reactant_set_id>  (1) 
51183566

>  <Ligand InChI>  (1) 
InChI=1S/C23H26N4O4S/c1-2-3-8-20-25-26-23(32-14-13-28)27(20)15-16-9-11-17(12-10-16)24-21(29)18-6-4-5-7-19(18)22(30)31/h4-7,9-12,28H,2-3,8,13-15H2,1H3,(H,24,29)(H,30,31)

>  <Ligand InChI Key>  (1) 
YBNPQDJXBUCQRI-UHFFFAOYSA-N

>  <BindingDB MonomerID>  (1) 
50047872

>  <BindingDB Ligand Name>  (1) 
CHEMBL347234::N-{4-[3-Butyl-5-(2-hydroxy-ethylsulfanyl)-[1,2,4]triazol-4-ylmethyl]-phenyl}-phthalamic acid

>  <Target Name>  (1) 
Type-1 angiotensin II receptor

>  <Target Source Organism According to Curator or DataSource>  (1) 
Oryctolagus cuniculus

>  <Ki (nM)>  (1) 


>  <IC50 (nM)>  (1) 
 480

>  <Kd (nM)>  (1) 


>  <EC50 (nM)>  (1) 


>  <kon (M-1-s-1)>  (1) 


>  <koff (s-1)>  (1) 


>  <pH>  (1) 


>  <Temp C>  (1) 


>  <Curation/DataSource>  (1) 
ChEMBL

>  <Article DOI>  (1) 
10.1007/s00044-011-9756-4

>  <BindingDB Entry DOI>  (1) 
10.7270/Q2833VXQ

>  <PMID>  (1) 


>  <PubChem AID>  (1) 


>  <Patent Number>  (1) 


>  <Authors>  (1) 
n/a

>  <Institution>  (1) 
n/a

>  <Link to Ligand in BindingDB>  (1) 
http://www.bindingdb.org/bind/chemsearch/marvin/MolStructure.jsp?monomerid=50047872

>  <Link to Ligand-Target Pair in BindingDB>  (1) 
http://www.bindingdb.org/jsp/dbsearch/PrimarySearch_ki.jsp?energyterm=kJ/mole&tag=r21&monomerid=50047872&enzyme=Type-1+angiotensin+II+receptor&column=ki&startPg=0&Increment=50&submit=Search

>  <Ligand HET ID in PDB>  (1) 


>  <PDB ID(s) for Ligand-Target Complex>  (1) 


>  <PubChem CID of Ligand>  (1) 
11744700

>  <PubChem SID of Ligand>  (1) 
103978436

>  <ChEBI ID of Ligand>  (1) 


>  <ChEMBL ID of Ligand>  (1) 
CHEMBL347234

>  <DrugBank ID of Ligand>  (1) 


>  <IUPHAR_GRAC ID of Ligand>  (1) 


>  <KEGG ID of Ligand>  (1) 
C06374

>  <ZINC ID of Ligand>  (1) 
ZINC02004063

>  <Number of Protein Chains in Target (bigger than 1 implies a multichain complex)>  (1) 
1

>  <BindingDB Target Chain Sequence>  (1) 
MMLNSSTEDGIKRIQDDCPKAGRHNYIFVMIPTLYSIIFVVGIFGNSLAVIVIYFYMKLKTVASVFLLNLALADLCFLLTLPLWAVYTAMEYRWPFGNYLCKIASASVSFNLYASVFLLTCLSIDRYLAIVHPMKSRLRRTMLVAKVTCIIIWLLAGLASLPAIIHRNVFFIENTNITVCAFHYESQNSTLPIGLGLTKNILGFLFPFLIILTSYTLIWKALKKAYEIQKNKPRNDDIFKIIMAIVLFFFFSWVPHQIFTFLDVLIQLGVIHDCRIADIVDTAMPITICIAYFNNCLNPLFYGFLGKKFKKYFLQLLKYIPPKAKSHSNLSTKMSTLSYRPSDNVSSSSKKPVPCFEVE

>  <PDB ID(s) of Target Chain>  (1) 
6DO1,6OS0,6OS1,6OS2

>  <UniProt (SwissProt) Recommended Name of Target Chain>  (1) 
Type-1 angiotensin II receptor

>  <UniProt (SwissProt) Entry Name of Target Chain>  (1) 
AGTR1_RABIT

>  <UniProt (SwissProt) Primary ID of Target Chain>  (1) 
P34976

>  <UniProt (SwissProt) Secondary ID(s) of Target Chain>  (1) 


>  <UniProt (SwissProt) Alternative ID(s) of Target Chain>  (1) 


>  <UniProt (TrEMBL) Submitted Name of Target Chain>  (1) 


>  <UniProt (TrEMBL) Entry Name of Target Chain>  (1) 


>  <UniProt (TrEMBL) Primary ID of Target Chain>  (1) 


>  <UniProt (TrEMBL) Secondary ID(s) of Target Chain>  (1) 


>  <UniProt (TrEMBL) Alternative ID(s) of Target Chain>  (1) 


$$$$
