
     RDKit          2D

 35 39  0  0  0  0  0  0  0  0999 V2000
    2.7023   -0.0667    0.0000 N   0  0  0  0  0  0  0  0  0  0  0  0
    2.1152    0.5121    0.0000 C   0  0  0  0  0  0  0  0  0  0  0  0
    2.4774    1.2449    0.0000 N   0  0  0  0  0  0  0  0  0  0  0  0
   -0.9993   -0.7869    0.0000 C   0  0  0  0  0  0  0  0  0  0  0  0
   -1.5697   -0.1916    0.0000 N   0  0  0  0  0  0  0  0  0  0  0  0
    3.4351    0.3123    0.0000 C   0  0  0  0  0  0  0  0  0  0  0  0
    4.2012    0.0333    0.0000 C   0  0  0  0  0  0  0  0  0  0  0  0
   -0.2623   -0.4289    0.0000 N   0  0  0  0  0  0  0  0  0  0  0  0
    3.2894    1.1242    0.0000 C   0  0  0  0  0  0  0  0  0  0  0  0
   -1.1825    0.5246    0.0000 C   0  0  0  0  0  0  0  0  0  0  0  0
   -1.1200   -1.6031    0.0000 C   0  0  0  0  0  0  0  0  0  0  0  0
   -0.3747    0.3955    0.0000 O   0  0  0  0  0  0  0  0  0  0  0  0
    4.3469   -0.7786    0.0000 C   0  0  0  0  0  0  0  0  0  0  0  0
   -0.4705   -2.1152    0.0000 C   0  0  0  0  0  0  0  0  0  0  0  0
    2.5899   -0.8869    0.0000 C   0  0  0  0  0  0  0  0  0  0  0  0
    0.2915   -1.8112    0.0000 C   0  0  0  0  0  0  0  0  0  0  0  0
   -1.5572    1.2741    0.0000 O   0  0  0  0  0  0  0  0  0  0  0  0
    3.7141   -1.3033    0.0000 O   0  0  0  0  0  0  0  0  0  0  0  0
    1.2991    0.3955    0.0000 O   0  0  0  0  0  0  0  0  0  0  0  0
    0.4122   -0.9910    0.0000 C   0  0  0  0  0  0  0  0  0  0  0  0
    0.9493   -2.3151    0.0000 C   0  0  0  0  0  0  0  0  0  0  0  0
    1.8279   -1.1909    0.0000 C   0  0  0  0  0  0  0  0  0  0  0  0
    5.1131   -1.0659    0.0000 O   0  0  0  0  0  0  0  0  0  0  0  0
    4.8383    0.5579    0.0000 C   0  0  0  0  0  0  0  0  0  0  0  0
    1.7113   -2.0111    0.0000 C   0  0  0  0  0  0  0  0  0  0  0  0
    1.1784   -0.6787    0.0000 C   0  0  0  0  0  0  0  0  0  0  0  0
    3.9222    1.6488    0.0000 C   0  0  0  0  0  0  0  0  0  0  0  0
   -1.8820   -1.9153    0.0000 C   0  0  0  0  0  0  0  0  0  0  0  0
   -0.5829   -2.9354    0.0000 C   0  0  0  0  0  0  0  0  0  0  0  0
    4.6884    1.3698    0.0000 C   0  0  0  0  0  0  0  0  0  0  0  0
    0.7786    1.0451    0.0000 C   0  0  0  0  0  0  0  0  0  0  0  0
   -0.0333    0.9201    0.0000 C   0  0  0  0  0  0  0  0  0  0  0  0
   -1.9986   -2.7356    0.0000 C   0  0  0  0  0  0  0  0  0  0  0  0
   -1.3448   -3.2394    0.0000 C   0  0  0  0  0  0  0  0  0  0  0  0
   -0.5454    1.5697    0.0000 C   0  0  0  0  0  0  0  0  0  0  0  0
  2  1  1  0
  3  2  2  0
  4 11  1  0
  5  4  2  0
  6  1  1  0
  7  6  2  0
  8  4  1  0
  9  6  1  0
 10  5  1  0
 11 14  1  0
 12  8  1  0
 13  7  1  0
 14 16  1  0
 15  1  1  0
 16 20  2  0
 17 10  2  0
 18 13  2  0
 19  2  1  0
 20 26  1  0
 21 25  2  0
 22 15  1  0
 23 13  1  0
 24  7  1  0
 25 22  1  0
 26 22  2  0
 27  9  2  0
 28 11  2  0
 29 14  2  0
 30 27  1  0
 31 19  1  0
 32 31  1  0
 33 34  2  0
 34 29  1  0
 35 32  1  0
  3  9  1  0
 21 16  1  0
 30 24  2  0
 33 28  1  0
 10 12  1  0
M  END
>  <From>  (1) 
www.bindingDB.org

>  <BindingDB Reactant_set_id>  (1) 
50472812

>  <Ligand InChI>  (1) 
InChI=1S/C26H22N4O5/c1-2-14-34-25-27-21-9-5-8-20(24(31)32)22(21)30(25)15-16-10-12-17(13-11-16)18-6-3-4-7-19(18)23-28-26(33)35-29-23/h3-13H,2,14-15H2,1H3,(H,31,32)(H,28,29,33)

>  <Ligand InChI Key>  (1) 
XITHKDUQJMGBFZ-UHFFFAOYSA-N

>  <BindingDB MonomerID>  (1) 
50285001

>  <BindingDB Ligand Name>  (1) 
3-[2'-(5-Oxo-4,5-dihydro-[1,2,4]oxadiazol-3-yl)-biphenyl-4-ylmethyl]-2-propoxy-3H-benzoimidazole-4-carboxylic acid::CHEMBL292914

>  <Target Name>  (1) 
Type-1 angiotensin II receptor

>  <Target Source Organism According to Curator or DataSource>  (1) 
Bos taurus

>  <Ki (nM)>  (1) 


>  <IC50 (nM)>  (1) 
 790

>  <Kd (nM)>  (1) 


>  <EC50 (nM)>  (1) 


>  <kon (M-1-s-1)>  (1) 


>  <koff (s-1)>  (1) 


>  <pH>  (1) 


>  <Temp C>  (1) 


>  <Curation/DataSource>  (1) 
ChEMBL

>  <Article DOI>  (1) 
10.1016/0960-894X(95)00319-O

>  <BindingDB Entry DOI>  (1) 
10.7270/Q26M36SM

>  <PMID>  (1) 


>  <PubChem AID>  (1) 


>  <Patent Number>  (1) 


>  <Authors>  (1) 
Kohara, Y; Imamiya, E; Kubo, K; Wada, T; Inada, Y; Naka, T

>  <Institution>  (1) 
TBA

>  <Link to Ligand in BindingDB>  (1) 
http://www.bindingdb.org/bind/chemsearch/marvin/MolStructure.jsp?monomerid=50285001

>  <Link to Ligand-Target Pair in BindingDB>  (1) 
http://www.bindingdb.org/jsp/dbsearch/PrimarySearch_ki.jsp?energyterm=kJ/mole&tag=r21&monomerid=50285001&enzyme=Type-1+angiotensin+II+receptor&column=ki&startPg=0&Increment=50&submit=Search

>  <Ligand HET ID in PDB>  (1) 


>  <PDB ID(s) for Ligand-Target Complex>  (1) 


>  <PubChem CID of Ligand>  (1) 
18693031

>  <PubChem SID of Ligand>  (1) 
104126572

>  <ChEBI ID of Ligand>  (1) 


>  <ChEMBL ID of Ligand>  (1) 
CHEMBL292914

>  <DrugBank ID of Ligand>  (1) 


>  <IUPHAR_GRAC ID of Ligand>  (1) 


>  <KEGG ID of Ligand>  (1) 


>  <ZINC ID of Ligand>  (1) 
ZINC29559384

>  <Number of Protein Chains in Target (bigger than 1 implies a multichain complex)>  (1) 
1

>  <BindingDB Target Chain Sequence>  (1) 
MILNSSTEDGIKRIQDDCPKAGRHNYIFIMIPTLYSIIFVVGIFGNSLVVIVIYFYMKLKTVASVFLLNLALADLCFLLTLPLWAVYTAMEYRWPFGNYLCKIASASVSFNLYASVFLLTCLSIDRYLAIVHPMKSRLRRTMLVAKVTCIIIWLLAGLASLPTIIHRNVFFIENTNITVCAFHYESQNSTLPVGLGLTKNILGFLFPFLIILTSYTLIWKTLKKAYEIQKNKPRKDDIFKIILAIVLFFFFSWVPHQIFTFMDVLIQLGLIRDCKIEDIVDTAMPITICLAYFNNCLNPLFYGFLGKKFKKYFLQLLKYIPPKAKSHSNLSTKMSTLSYRPSENGNSSTKKPAPCIEVE

>  <PDB ID(s) of Target Chain>  (1) 


>  <UniProt (SwissProt) Recommended Name of Target Chain>  (1) 
Type-1 angiotensin II receptor

>  <UniProt (SwissProt) Entry Name of Target Chain>  (1) 
AGTR1_BOVIN

>  <UniProt (SwissProt) Primary ID of Target Chain>  (1) 
P25104

>  <UniProt (SwissProt) Secondary ID(s) of Target Chain>  (1) 


>  <UniProt (SwissProt) Alternative ID(s) of Target Chain>  (1) 


>  <UniProt (TrEMBL) Submitted Name of Target Chain>  (1) 


>  <UniProt (TrEMBL) Entry Name of Target Chain>  (1) 


>  <UniProt (TrEMBL) Primary ID of Target Chain>  (1) 


>  <UniProt (TrEMBL) Secondary ID(s) of Target Chain>  (1) 


>  <UniProt (TrEMBL) Alternative ID(s) of Target Chain>  (1) 


$$$$
