
     RDKit          2D

 30 33  0  0  0  0  0  0  0  0999 V2000
    5.5983   -3.2999    0.0000 N   0  0  0  0  0  0  0  0  0  0  0  0
    5.3423   -2.5090    0.0000 C   0  0  0  0  0  0  0  0  0  0  0  0
    4.2557   -3.2999    0.0000 N   0  0  0  0  0  0  0  0  0  0  0  0
    4.9327   -3.7778    0.0000 C   0  0  0  0  0  0  0  0  0  0  0  0
    4.5117   -2.5147    0.0000 C   0  0  0  0  0  0  0  0  0  0  0  0
    9.8824   -4.5800    0.0000 C   0  0  0  0  0  0  0  0  0  0  0  0
    9.4728   -3.8744    0.0000 C   0  0  0  0  0  0  0  0  0  0  0  0
    9.4728   -5.3082    0.0000 C   0  0  0  0  0  0  0  0  0  0  0  0
    6.1786   -3.8744    0.0000 C   0  0  0  0  0  0  0  0  0  0  0  0
    5.8259   -1.8433    0.0000 S   0  0  0  0  0  0  0  0  0  0  0  0
    8.6422   -3.8744    0.0000 C   0  0  0  0  0  0  0  0  0  0  0  0
    9.8824   -6.0137    0.0000 O   0  0  0  0  0  0  0  0  0  0  0  0
    8.2325   -4.5913    0.0000 C   0  0  0  0  0  0  0  0  0  0  0  0
    8.2268   -3.1576    0.0000 C   0  0  0  0  0  0  0  0  0  0  0  0
    7.0036   -3.8744    0.0000 C   0  0  0  0  0  0  0  0  0  0  0  0
    8.6422   -5.3082    0.0000 O   0  0  0  0  0  0  0  0  0  0  0  0
    4.9213   -4.6084    0.0000 C   0  0  0  0  0  0  0  0  0  0  0  0
    7.4075   -3.1576    0.0000 C   0  0  0  0  0  0  0  0  0  0  0  0
    7.4075   -4.5913    0.0000 C   0  0  0  0  0  0  0  0  0  0  0  0
    4.7677   -1.7296    0.0000 C   0  0  0  0  0  0  0  0  0  0  0  0
    3.6924   -2.5147    0.0000 C   0  0  0  0  0  0  0  0  0  0  0  0
   10.7074   -4.5800    0.0000 C   0  0  0  0  0  0  0  0  0  0  0  0
    9.8711   -3.1576    0.0000 C   0  0  0  0  0  0  0  0  0  0  0  0
    4.2158   -5.0180    0.0000 C   0  0  0  0  0  0  0  0  0  0  0  0
    4.2158   -5.8430    0.0000 C   0  0  0  0  0  0  0  0  0  0  0  0
    3.4477   -1.7296    0.0000 C   0  0  0  0  0  0  0  0  0  0  0  0
    4.1134   -1.2517    0.0000 C   0  0  0  0  0  0  0  0  0  0  0  0
   11.1170   -3.8631    0.0000 C   0  0  0  0  0  0  0  0  0  0  0  0
   10.7017   -3.1463    0.0000 C   0  0  0  0  0  0  0  0  0  0  0  0
    3.5047   -6.2526    0.0000 C   0  0  0  0  0  0  0  0  0  0  0  0
  2  1  1  0
  3  4  2  0
  4  1  1  0
  5  2  1  0
  6  7  2  0
  7 11  1  0
  8  6  1  0
  9  1  1  0
 10  2  2  0
 11 13  2  0
 12  8  2  0
 13 19  1  0
 14 18  2  0
 15  9  1  0
 16  8  1  0
 17  4  1  0
 18 15  1  0
 19 15  2  0
 20  5  1  0
 21  5  1  0
 22  6  1  0
 23  7  1  0
 24 17  1  0
 25 24  1  0
 26 21  1  0
 27 20  1  0
 28 29  1  0
 29 23  2  0
 30 25  1  0
  3  5  1  0
 14 11  1  0
 27 26  1  0
 22 28  2  0
M  END
>  <From>  (1) 
www.bindingDB.org

>  <BindingDB Reactant_set_id>  (1) 
50067236

>  <Ligand InChI>  (1) 
InChI=1S/C25H28N2O2S/c1-2-3-10-22-26-25(15-6-7-16-25)24(30)27(22)17-18-11-13-19(14-12-18)20-8-4-5-9-21(20)23(28)29/h4-5,8-9,11-14H,2-3,6-7,10,15-17H2,1H3,(H,28,29)

>  <Ligand InChI Key>  (1) 
WPWLXIFNTAWWKW-UHFFFAOYSA-N

>  <BindingDB MonomerID>  (1) 
50042258

>  <BindingDB Ligand Name>  (1) 
4'-(2-Butyl-4-thioxo-1,3-diaza-spiro[4.4]non-1-en-3-ylmethyl)-biphenyl-2-carboxylic acid::CHEMBL327018

>  <Target Name>  (1) 
Type-1 angiotensin II receptor B

>  <Target Source Organism According to Curator or DataSource>  (1) 
Rattus

>  <Ki (nM)>  (1) 


>  <IC50 (nM)>  (1) 
 80

>  <Kd (nM)>  (1) 


>  <EC50 (nM)>  (1) 


>  <kon (M-1-s-1)>  (1) 


>  <koff (s-1)>  (1) 


>  <pH>  (1) 


>  <Temp C>  (1) 


>  <Curation/DataSource>  (1) 
ChEMBL

>  <Article DOI>  (1) 
10.1021/jm00074a018

>  <BindingDB Entry DOI>  (1) 
10.7270/Q22Z14M0

>  <PMID>  (1) 
8230127

>  <PubChem AID>  (1) 


>  <Patent Number>  (1) 


>  <Authors>  (1) 
Bernhart, CA; Perreaut, PM; Ferrari, BP; Muneaux, YA; Assens, JL; Clement, J; Haudricourt, F; Muneaux, CF; Taillades, JE; Vignal, MA

>  <Institution>  (1) 
Sanofi Recherche

>  <Link to Ligand in BindingDB>  (1) 
http://www.bindingdb.org/bind/chemsearch/marvin/MolStructure.jsp?monomerid=50042258

>  <Link to Ligand-Target Pair in BindingDB>  (1) 
http://www.bindingdb.org/jsp/dbsearch/PrimarySearch_ki.jsp?energyterm=kJ/mole&tag=r21&monomerid=50042258&enzyme=Type-1+angiotensin+II+receptor+B&column=ki&startPg=0&Increment=50&submit=Search

>  <Ligand HET ID in PDB>  (1) 


>  <PDB ID(s) for Ligand-Target Complex>  (1) 


>  <PubChem CID of Ligand>  (1) 
44341802

>  <PubChem SID of Ligand>  (1) 
103973866

>  <ChEBI ID of Ligand>  (1) 


>  <ChEMBL ID of Ligand>  (1) 
CHEMBL327018

>  <DrugBank ID of Ligand>  (1) 


>  <IUPHAR_GRAC ID of Ligand>  (1) 


>  <KEGG ID of Ligand>  (1) 


>  <ZINC ID of Ligand>  (1) 
ZINC13833596

>  <Number of Protein Chains in Target (bigger than 1 implies a multichain complex)>  (1) 
1

>  <BindingDB Target Chain Sequence>  (1) 
MTLNSSTEDGIKRIQDDCPKAGRHNYIFVMIPTLYSIIFVVGIFGNSLVVIVIYFYMKLKTVASVFLLNLALADLCFLLTLPLWAVYTAMEYRWPFGNHLCKIASASVSFNLYASVFLLTCLSIDRYLAIVHPMKSRLRRTMLVAKVTCIIIWLMAGLASLPAVIYRNVYFIENTNITVCAFHYESQNSTLPIGLGLTKNILGFVFPFLIILTSYTLIWKALKKAYKIQKNTPRNDDIFRIIMAIVLFFFFSWVPHQIFTFLDVLIQLGIIRDCEIADIVDTAMPITICIAYFNNCLNPLFYGFLGKKFKKYFLQLLKYIPPTAKSHAGLSTKMSTLSYRPSDNMSSSAKKSASFFEVE

>  <PDB ID(s) of Target Chain>  (1) 


>  <UniProt (SwissProt) Recommended Name of Target Chain>  (1) 
Type-1 angiotensin II receptor B

>  <UniProt (SwissProt) Entry Name of Target Chain>  (1) 
AGTRB_RAT

>  <UniProt (SwissProt) Primary ID of Target Chain>  (1) 
P29089

>  <UniProt (SwissProt) Secondary ID(s) of Target Chain>  (1) 


>  <UniProt (SwissProt) Alternative ID(s) of Target Chain>  (1) 


>  <UniProt (TrEMBL) Submitted Name of Target Chain>  (1) 


>  <UniProt (TrEMBL) Entry Name of Target Chain>  (1) 


>  <UniProt (TrEMBL) Primary ID of Target Chain>  (1) 


>  <UniProt (TrEMBL) Secondary ID(s) of Target Chain>  (1) 


>  <UniProt (TrEMBL) Alternative ID(s) of Target Chain>  (1) 


$$$$
