
     RDKit          2D

 30 32  0  0  0  0  0  0  0  0999 V2000
    1.4042   -0.7000    0.0000 C   0  0  0  0  0  0  0  0  0  0  0  0
    2.1250   -1.1125    0.0000 N   0  0  0  0  0  0  0  0  0  0  0  0
    0.7917   -1.2542    0.0000 C   0  0  0  0  0  0  0  0  0  0  0  0
    1.1292   -2.0042    0.0000 N   0  0  0  0  0  0  0  0  0  0  0  0
    1.9500   -1.9167    0.0000 C   0  0  0  0  0  0  0  0  0  0  0  0
    1.3250    0.1250    0.0000 C   0  0  0  0  0  0  0  0  0  0  0  0
    6.4250   -1.9417    0.0000 C   0  0  0  0  0  0  0  0  0  0  0  0
    5.7042   -2.3542    0.0000 C   0  0  0  0  0  0  0  0  0  0  0  0
    6.4250   -1.1167    0.0000 C   0  0  0  0  0  0  0  0  0  0  0  0
    2.8417   -0.7000    0.0000 C   0  0  0  0  0  0  0  0  0  0  0  0
    4.9917   -1.9417    0.0000 C   0  0  0  0  0  0  0  0  0  0  0  0
   -0.0250   -1.1042    0.0000 C   0  0  0  0  0  0  0  0  0  0  0  0
    0.5667    0.4708    0.0000 O   0  0  0  0  0  0  0  0  0  0  0  0
    5.7042   -0.7042    0.0000 O   0  0  0  0  0  0  0  0  0  0  0  0
    4.2750   -2.3542    0.0000 C   0  0  0  0  0  0  0  0  0  0  0  0
    4.9917   -1.1167    0.0000 C   0  0  0  0  0  0  0  0  0  0  0  0
    3.5625   -1.1167    0.0000 C   0  0  0  0  0  0  0  0  0  0  0  0
    1.9917    0.6083    0.0000 O   0  0  0  0  0  0  0  0  0  0  0  0
    7.1375   -0.7042    0.0000 O   0  0  0  0  0  0  0  0  0  0  0  0
    2.4917   -2.5375    0.0000 C   0  0  0  0  0  0  0  0  0  0  0  0
    4.2750   -0.7042    0.0000 C   0  0  0  0  0  0  0  0  0  0  0  0
    3.5625   -1.9417    0.0000 C   0  0  0  0  0  0  0  0  0  0  0  0
    7.1417   -2.3542    0.0000 C   0  0  0  0  0  0  0  0  0  0  0  0
    5.7042   -3.1792    0.0000 C   0  0  0  0  0  0  0  0  0  0  0  0
   -0.2958   -0.3250    0.0000 C   0  0  0  0  0  0  0  0  0  0  0  0
   -0.5708   -1.7250    0.0000 C   0  0  0  0  0  0  0  0  0  0  0  0
    2.2292   -3.3167    0.0000 C   0  0  0  0  0  0  0  0  0  0  0  0
    7.1417   -3.1792    0.0000 C   0  0  0  0  0  0  0  0  0  0  0  0
    6.4167   -3.5917    0.0000 C   0  0  0  0  0  0  0  0  0  0  0  0
    2.7792   -3.9292    0.0000 C   0  0  0  0  0  0  0  0  0  0  0  0
  2  1  1  0
  3  1  2  0
  4  3  1  0
  5  2  1  0
  6  1  1  0
  7  8  2  0
  8 11  1  0
  9  7  1  0
 10  2  1  0
 11 15  2  0
 12  3  1  0
 13  6  2  0
 14  9  2  0
 15 22  1  0
 16 21  2  0
 17 10  1  0
 18  6  1  0
 19  9  1  0
 20  5  1  0
 21 17  1  0
 22 17  2  0
 23  7  1  0
 24  8  1  0
 25 12  1  0
 26 12  1  0
 27 20  1  0
 28 29  1  0
 29 24  2  0
 30 27  1  0
  4  5  2  0
 11 16  1  0
 28 23  2  0
M  END
>  <From>  (1) 
www.bindingDB.org

>  <BindingDB Reactant_set_id>  (1) 
50079614

>  <Ligand InChI>  (1) 
InChI=1S/C24H26N2O4/c1-4-7-20-25-21(15(2)3)22(24(29)30)26(20)14-16-10-12-17(13-11-16)18-8-5-6-9-19(18)23(27)28/h5-6,8-13,15H,4,7,14H2,1-3H3,(H,27,28)(H,29,30)

>  <Ligand InChI Key>  (1) 
XHISRMRFXXRDLA-UHFFFAOYSA-N

>  <BindingDB MonomerID>  (1) 
50049111

>  <BindingDB Ligand Name>  (1) 
3-(2'-Carboxy-biphenyl-4-ylmethyl)-5-isopropyl-2-propyl-3H-imidazole-4-carboxylic acid::CHEMBL323819

>  <Target Name>  (1) 
Type-1 angiotensin II receptor

>  <Target Source Organism According to Curator or DataSource>  (1) 
Bos taurus

>  <Ki (nM)>  (1) 


>  <IC50 (nM)>  (1) 
 360

>  <Kd (nM)>  (1) 


>  <EC50 (nM)>  (1) 


>  <kon (M-1-s-1)>  (1) 


>  <koff (s-1)>  (1) 


>  <pH>  (1) 


>  <Temp C>  (1) 


>  <Curation/DataSource>  (1) 
ChEMBL

>  <Article DOI>  (1) 
10.1021/jm950450f

>  <BindingDB Entry DOI>  (1) 
10.7270/Q28S4P18

>  <PMID>  (1) 
8568823

>  <PubChem AID>  (1) 


>  <Patent Number>  (1) 


>  <Authors>  (1) 
Yanagisawa, H; Amemiya, Y; Kanazaki, T; Shimoji, Y; Fujimoto, K; Kitahara, Y; Sada, T; Mizuno, M; Ikeda, M; Miyamoto, S; Furukawa, Y; Koike, H

>  <Institution>  (1) 
Sankyo Company Ltd

>  <Link to Ligand in BindingDB>  (1) 
http://www.bindingdb.org/bind/chemsearch/marvin/MolStructure.jsp?monomerid=50049111

>  <Link to Ligand-Target Pair in BindingDB>  (1) 
http://www.bindingdb.org/jsp/dbsearch/PrimarySearch_ki.jsp?energyterm=kJ/mole&tag=r21&monomerid=50049111&enzyme=Type-1+angiotensin+II+receptor&column=ki&startPg=0&Increment=50&submit=Search

>  <Ligand HET ID in PDB>  (1) 


>  <PDB ID(s) for Ligand-Target Complex>  (1) 


>  <PubChem CID of Ligand>  (1) 
10811315

>  <PubChem SID of Ligand>  (1) 
103979473

>  <ChEBI ID of Ligand>  (1) 


>  <ChEMBL ID of Ligand>  (1) 
CHEMBL323819

>  <DrugBank ID of Ligand>  (1) 


>  <IUPHAR_GRAC ID of Ligand>  (1) 


>  <KEGG ID of Ligand>  (1) 


>  <ZINC ID of Ligand>  (1) 
ZINC13745623

>  <Number of Protein Chains in Target (bigger than 1 implies a multichain complex)>  (1) 
1

>  <BindingDB Target Chain Sequence>  (1) 
MILNSSTEDGIKRIQDDCPKAGRHNYIFIMIPTLYSIIFVVGIFGNSLVVIVIYFYMKLKTVASVFLLNLALADLCFLLTLPLWAVYTAMEYRWPFGNYLCKIASASVSFNLYASVFLLTCLSIDRYLAIVHPMKSRLRRTMLVAKVTCIIIWLLAGLASLPTIIHRNVFFIENTNITVCAFHYESQNSTLPVGLGLTKNILGFLFPFLIILTSYTLIWKTLKKAYEIQKNKPRKDDIFKIILAIVLFFFFSWVPHQIFTFMDVLIQLGLIRDCKIEDIVDTAMPITICLAYFNNCLNPLFYGFLGKKFKKYFLQLLKYIPPKAKSHSNLSTKMSTLSYRPSENGNSSTKKPAPCIEVE

>  <PDB ID(s) of Target Chain>  (1) 


>  <UniProt (SwissProt) Recommended Name of Target Chain>  (1) 
Type-1 angiotensin II receptor

>  <UniProt (SwissProt) Entry Name of Target Chain>  (1) 
AGTR1_BOVIN

>  <UniProt (SwissProt) Primary ID of Target Chain>  (1) 
P25104

>  <UniProt (SwissProt) Secondary ID(s) of Target Chain>  (1) 


>  <UniProt (SwissProt) Alternative ID(s) of Target Chain>  (1) 


>  <UniProt (TrEMBL) Submitted Name of Target Chain>  (1) 


>  <UniProt (TrEMBL) Entry Name of Target Chain>  (1) 


>  <UniProt (TrEMBL) Primary ID of Target Chain>  (1) 


>  <UniProt (TrEMBL) Secondary ID(s) of Target Chain>  (1) 


>  <UniProt (TrEMBL) Alternative ID(s) of Target Chain>  (1) 


$$$$
