
     RDKit          2D

 47 53  0  0  0  0  0  0  0  0999 V2000
   10.6862   -2.0920    0.0000 C   0  0  0  0  0  0  0  0  0  0  0  0
    6.3059   -2.0877    0.0000 N   0  0  0  0  0  0  0  0  0  0  0  0
    5.5715   -1.7035    0.0000 C   0  0  0  0  0  0  0  0  0  0  0  0
    4.8414   -2.0877    0.0000 C   0  0  0  0  0  0  0  0  0  0  0  0
   11.1217   -0.9265    0.0000 N   0  0  0  0  0  0  0  0  0  0  0  0
   10.0074   -1.6394    0.0000 N   0  0  0  0  0  0  0  0  0  0  0  0
   11.3778   -1.6437    0.0000 N   0  0  0  0  0  0  0  0  0  0  0  0
   10.2848   -0.9222    0.0000 N   0  0  0  0  0  0  0  0  0  0  0  0
    2.6428   -1.7035    0.0000 N   0  0  0  0  0  0  0  0  0  0  0  0
    2.6428   -0.9350    0.0000 C   0  0  0  0  0  0  0  0  0  0  0  0
    5.5715   -3.2404    0.0000 N   0  0  0  0  0  0  0  0  0  0  0  0
   10.6862   -2.8562    0.0000 C   0  0  0  0  0  0  0  0  0  0  0  0
    6.3059   -2.8562    0.0000 C   0  0  0  0  0  0  0  0  0  0  0  0
    4.1029   -1.7035    0.0000 C   0  0  0  0  0  0  0  0  0  0  0  0
    3.3728   -2.0877    0.0000 C   0  0  0  0  0  0  0  0  0  0  0  0
    4.8329   -2.8477    0.0000 C   0  0  0  0  0  0  0  0  0  0  0  0
    9.9561   -3.2404    0.0000 C   0  0  0  0  0  0  0  0  0  0  0  0
    7.0359   -1.7035    0.0000 C   0  0  0  0  0  0  0  0  0  0  0  0
    1.9084   -2.0792    0.0000 C   0  0  0  0  0  0  0  0  0  0  0  0
    9.2261   -2.8562    0.0000 C   0  0  0  0  0  0  0  0  0  0  0  0
    5.5715   -0.9350    0.0000 O   0  0  0  0  0  0  0  0  0  0  0  0
    1.9084   -0.5550    0.0000 O   0  0  0  0  0  0  0  0  0  0  0  0
    3.3600   -0.4995    0.0000 C   0  0  0  0  0  0  0  0  0  0  0  0
    3.3728   -2.8562    0.0000 C   0  0  0  0  0  0  0  0  0  0  0  0
    4.1029   -3.2404    0.0000 C   0  0  0  0  0  0  0  0  0  0  0  0
    9.2261   -2.0877    0.0000 C   0  0  0  0  0  0  0  0  0  0  0  0
    8.4960   -3.2404    0.0000 C   0  0  0  0  0  0  0  0  0  0  0  0
    7.7660   -2.0877    0.0000 C   0  0  0  0  0  0  0  0  0  0  0  0
    1.1954   -1.6266    0.0000 C   0  0  0  0  0  0  0  0  0  0  0  0
   -0.2134   -0.7216    0.0000 C   0  0  0  0  0  0  0  0  0  0  0  0
    9.2005   -1.8700    0.0000 C   0  0  0  0  0  0  0  0  0  0  0  0
    7.7660   -2.8562    0.0000 C   0  0  0  0  0  0  0  0  0  0  0  0
    8.4960   -1.7035    0.0000 C   0  0  0  0  0  0  0  0  0  0  0  0
    1.2424   -0.7856    0.0000 C   0  0  0  0  0  0  0  0  0  0  0  0
    0.4611   -2.0152    0.0000 C   0  0  0  0  0  0  0  0  0  0  0  0
    0.5379   -0.3330    0.0000 C   0  0  0  0  0  0  0  0  0  0  0  0
   -0.2519   -1.5626    0.0000 C   0  0  0  0  0  0  0  0  0  0  0  0
   11.4163   -3.2404    0.0000 C   0  0  0  0  0  0  0  0  0  0  0  0
   -0.9222   -0.2690    0.0000 O   0  0  0  0  0  0  0  0  0  0  0  0
    9.9561   -4.0089    0.0000 C   0  0  0  0  0  0  0  0  0  0  0  0
    4.1029   -0.9094    0.0000 C   0  0  0  0  0  0  0  0  0  0  0  0
    3.3429    0.3458    0.0000 C   0  0  0  0  0  0  0  0  0  0  0  0
   11.4248   -4.0089    0.0000 C   0  0  0  0  0  0  0  0  0  0  0  0
   10.6862   -4.3846    0.0000 C   0  0  0  0  0  0  0  0  0  0  0  0
    4.0601    0.7813    0.0000 C   0  0  0  0  0  0  0  0  0  0  0  0
    4.8201   -0.4654    0.0000 C   0  0  0  0  0  0  0  0  0  0  0  0
    4.8073    0.3799    0.0000 C   0  0  0  0  0  0  0  0  0  0  0  0
  2 18  1  0
  3  2  1  0
  4  3  1  0
  5  7  1  0
  6  1  1  0
  7  1  2  0
  8  6  1  0
  9 15  1  0
 10  9  1  0
 11 13  2  0
 12  1  1  0
 13  2  1  0
 14  4  2  0
 15 14  1  0
 16 11  1  0
 17 12  1  0
 18 28  1  0
 19  9  1  0
 20 17  1  0
 21  3  2  0
 22 10  2  0
 23 10  1  0
 24 25  1  0
 25 16  2  0
 26 20  2  0
 27 20  1  0
 28 32  1  0
 29 19  1  0
 30 37  2  0
 31  6  1  0
 32 27  2  0
 33 26  1  0
 34 29  1  0
 35 29  2  0
 36 34  2  0
 37 35  1  0
 38 12  2  0
 39 30  1  0
 40 17  2  0
 41 23  2  0
 42 23  1  0
 43 38  1  0
 44 43  2  0
 45 42  2  0
 46 41  1  0
 47 45  1  0
  5  8  2  0
 40 44  1  0
 33 28  2  0
  4 16  1  0
 15 24  2  0
 30 36  1  0
 46 47  2  0
M  END
>  <From>  (1) 
www.bindingDB.org

>  <BindingDB Reactant_set_id>  (1) 
50472065

>  <Ligand InChI>  (1) 
InChI=1S/C37H29N7O3/c1-42-35(39-40-41-42)32-10-6-5-9-31(32)27-15-11-25(12-16-27)22-43-24-38-34-20-17-29(21-33(34)37(43)47)44(23-26-13-18-30(45)19-14-26)36(46)28-7-3-2-4-8-28/h2-21,24,45H,22-23H2,1H3

>  <Ligand InChI Key>  (1) 
ADFOXNCBBGJEFZ-UHFFFAOYSA-N

>  <BindingDB MonomerID>  (1) 
50284655

>  <BindingDB Ligand Name>  (1) 
CHEMBL30015::N-(4-Hydroxy-benzyl)-N-{3-[2'-(1-methyl-1H-tetrazol-5-yl)-biphenyl-4-ylmethyl]-4-oxo-3,4-dihydro-quinazolin-6-yl}-benzamide

>  <Target Name>  (1) 
Type-1 angiotensin II receptor

>  <Target Source Organism According to Curator or DataSource>  (1) 
Homo sapiens

>  <Ki (nM)>  (1) 


>  <IC50 (nM)>  (1) 
 6

>  <Kd (nM)>  (1) 


>  <EC50 (nM)>  (1) 


>  <kon (M-1-s-1)>  (1) 


>  <koff (s-1)>  (1) 


>  <pH>  (1) 


>  <Temp C>  (1) 


>  <Curation/DataSource>  (1) 
ChEMBL

>  <Article DOI>  (1) 
10.1016/0960-894X(95)00224-H

>  <BindingDB Entry DOI>  (1) 
10.7270/Q2086589

>  <PMID>  (1) 


>  <PubChem AID>  (1) 


>  <Patent Number>  (1) 


>  <Authors>  (1) 
de Laszlo, SE; Chang, RS; Chen, TB; Faust, KA; Greenlee, WJ; Kivlighn, SD; Lotti, VJ; O'Malley, SS; Schorn, TW; Schorn, TW; Siegl, PK; Tran, J; Zingaro, GJ

>  <Institution>  (1) 
TBA

>  <Link to Ligand in BindingDB>  (1) 
http://www.bindingdb.org/bind/chemsearch/marvin/MolStructure.jsp?monomerid=50284655

>  <Link to Ligand-Target Pair in BindingDB>  (1) 
http://www.bindingdb.org/jsp/dbsearch/PrimarySearch_ki.jsp?energyterm=kJ/mole&tag=r21&monomerid=50284655&enzyme=Type-1+angiotensin+II+receptor&column=ki&startPg=0&Increment=50&submit=Search

>  <Ligand HET ID in PDB>  (1) 


>  <PDB ID(s) for Ligand-Target Complex>  (1) 


>  <PubChem CID of Ligand>  (1) 
44277594

>  <PubChem SID of Ligand>  (1) 
104126226

>  <ChEBI ID of Ligand>  (1) 


>  <ChEMBL ID of Ligand>  (1) 
CHEMBL30015

>  <DrugBank ID of Ligand>  (1) 


>  <IUPHAR_GRAC ID of Ligand>  (1) 


>  <KEGG ID of Ligand>  (1) 


>  <ZINC ID of Ligand>  (1) 
ZINC28768411

>  <Number of Protein Chains in Target (bigger than 1 implies a multichain complex)>  (1) 
1

>  <BindingDB Target Chain Sequence>  (1) 
MILNSSTEDGIKRIQDDCPKAGRHNYIFVMIPTLYSIIFVVGIFGNSLVVIVIYFYMKLKTVASVFLLNLALADLCFLLTLPLWAVYTAMEYRWPFGNYLCKIASASVSFNLYASVFLLTCLSIDRYLAIVHPMKSRLRRTMLVAKVTCIIIWLLAGLASLPAIIHRNVFFIENTNITVCAFHYESQNSTLPIGLGLTKNILGFLFPFLIILTSYTLIWKALKKAYEIQKNKPRNDDIFKIIMAIVLFFFFSWIPHQIFTFLDVLIQLGIIRDCRIADIVDTAMPITICIAYFNNCLNPLFYGFLGKKFKRYFLQLLKYIPPKAKSHSNLSTKMSTLSYRPSDNVSSSTKKPAPCFEVE

>  <PDB ID(s) of Target Chain>  (1) 
6DO1,6OS0,6OS1,6OS2

>  <UniProt (SwissProt) Recommended Name of Target Chain>  (1) 
Type-1 angiotensin II receptor

>  <UniProt (SwissProt) Entry Name of Target Chain>  (1) 
AGTR1_HUMAN

>  <UniProt (SwissProt) Primary ID of Target Chain>  (1) 
P30556

>  <UniProt (SwissProt) Secondary ID(s) of Target Chain>  (1) 
Q13725 Q8TBK4

>  <UniProt (SwissProt) Alternative ID(s) of Target Chain>  (1) 


>  <UniProt (TrEMBL) Submitted Name of Target Chain>  (1) 


>  <UniProt (TrEMBL) Entry Name of Target Chain>  (1) 


>  <UniProt (TrEMBL) Primary ID of Target Chain>  (1) 


>  <UniProt (TrEMBL) Secondary ID(s) of Target Chain>  (1) 


>  <UniProt (TrEMBL) Alternative ID(s) of Target Chain>  (1) 


$$$$
