
     RDKit          2D

 36 40  0  0  0  0  0  0  0  0999 V2000
   -2.8464    3.3215    0.0000 N   0  0  0  0  0  0  0  0  0  0  0  0
   -2.0880    2.9840    0.0000 C   0  0  0  0  0  0  0  0  0  0  0  0
   -1.9504    4.3135    0.0000 N   0  0  0  0  0  0  0  0  0  0  0  0
   -2.8381   -0.8044    0.0000 C   0  0  0  0  0  0  0  0  0  0  0  0
   -2.7589    4.1384    0.0000 C   0  0  0  0  0  0  0  0  0  0  0  0
   -1.5378    3.6091    0.0000 C   0  0  0  0  0  0  0  0  0  0  0  0
   -2.8381   -1.6254    0.0000 C   0  0  0  0  0  0  0  0  0  0  0  0
   -3.5508   -0.3918    0.0000 C   0  0  0  0  0  0  0  0  0  0  0  0
   -3.5591   -2.0422    0.0000 N   0  0  0  0  0  0  0  0  0  0  0  0
   -1.8337    2.2088    0.0000 N   0  0  0  0  0  0  0  0  0  0  0  0
   -2.1255   -0.3918    0.0000 C   0  0  0  0  0  0  0  0  0  0  0  0
   -4.2717   -0.8044    0.0000 C   0  0  0  0  0  0  0  0  0  0  0  0
   -4.2717   -1.6296    0.0000 C   0  0  0  0  0  0  0  0  0  0  0  0
   -0.7335    3.4341    0.0000 C   0  0  0  0  0  0  0  0  0  0  0  0
   -3.5591    2.9089    0.0000 C   0  0  0  0  0  0  0  0  0  0  0  0
   -3.5591    0.4334    0.0000 C   0  0  0  0  0  0  0  0  0  0  0  0
   -1.0252    2.0338    0.0000 C   0  0  0  0  0  0  0  0  0  0  0  0
   -0.4751    2.6506    0.0000 C   0  0  0  0  0  0  0  0  0  0  0  0
   -2.1338    0.4334    0.0000 O   0  0  0  0  0  0  0  0  0  0  0  0
   -2.1213   -2.0297    0.0000 N   0  0  0  0  0  0  0  0  0  0  0  0
   -4.2717    0.8460    0.0000 C   0  0  0  0  0  0  0  0  0  0  0  0
   -2.8381    0.8460    0.0000 C   0  0  0  0  0  0  0  0  0  0  0  0
   -3.5591    2.0838    0.0000 C   0  0  0  0  0  0  0  0  0  0  0  0
   -1.4086   -0.8002    0.0000 O   0  0  0  0  0  0  0  0  0  0  0  0
   -3.3715    4.6885    0.0000 C   0  0  0  0  0  0  0  0  0  0  0  0
   -4.2717    1.6712    0.0000 C   0  0  0  0  0  0  0  0  0  0  0  0
   -2.8381    1.6712    0.0000 C   0  0  0  0  0  0  0  0  0  0  0  0
   -0.1833    4.0426    0.0000 C   0  0  0  0  0  0  0  0  0  0  0  0
   -4.9844   -0.4001    0.0000 C   0  0  0  0  0  0  0  0  0  0  0  0
   -4.9761   -2.0422    0.0000 C   0  0  0  0  0  0  0  0  0  0  0  0
   -0.7710    1.2461    0.0000 C   0  0  0  0  0  0  0  0  0  0  0  0
   -3.2007    5.4929    0.0000 C   0  0  0  0  0  0  0  0  0  0  0  0
   -3.8133    6.0430    0.0000 C   0  0  0  0  0  0  0  0  0  0  0  0
   -5.6971   -0.8169    0.0000 C   0  0  0  0  0  0  0  0  0  0  0  0
   -5.6888   -1.6421    0.0000 C   0  0  0  0  0  0  0  0  0  0  0  0
   -3.6466    6.8557    0.0000 C   0  0  0  0  0  0  0  0  0  0  0  0
  2  1  1  0
  3  5  2  0
  4  8  2  0
  5  1  1  0
  6  2  2  0
  7  4  1  0
  8 16  1  0
  9 13  1  0
 10  2  1  0
 11  4  1  0
 12  8  1  0
 13 12  2  0
 14  6  1  0
 15  1  1  0
 16 22  2  0
 17 10  2  0
 18 17  1  0
 19 11  2  0
 20  7  1  0
 21 26  2  0
 22 27  1  0
 23 15  1  0
 24 11  1  0
 25  5  1  0
 26 23  1  0
 27 23  2  0
 28 14  1  0
 29 12  1  0
 30 13  1  0
 31 17  1  0
 32 25  1  0
 33 32  1  0
 34 29  2  0
 35 34  1  0
 36 33  1  0
  6  3  1  0
 21 16  1  0
 18 14  2  0
  7  9  2  0
 35 30  2  0
M  END
>  <From>  (1) 
www.bindingDB.org

>  <BindingDB Reactant_set_id>  (1) 
50267963

>  <Ligand InChI>  (1) 
InChI=1S/C29H29N5O2/c1-4-5-10-23-33-26-17(2)15-18(3)31-28(26)34(23)16-19-11-13-20(14-12-19)24-21-8-6-7-9-22(21)32-27(30)25(24)29(35)36/h6-9,11-15H,4-5,10,16H2,1-3H3,(H2,30,32)(H,35,36)

>  <Ligand InChI Key>  (1) 
PZVBQYULRFJDGY-UHFFFAOYSA-N

>  <BindingDB MonomerID>  (1) 
50145976

>  <BindingDB Ligand Name>  (1) 
2-Amino-4-[4-(2-butyl-5,7-dimethyl-imidazo[4,5-b]pyridin-3-ylmethyl)-phenyl]-quinoline-3-carboxylic acid::CHEMBL315165

>  <Target Name>  (1) 
Type-1 angiotensin II receptor B

>  <Target Source Organism According to Curator or DataSource>  (1) 
Rattus

>  <Ki (nM)>  (1) 


>  <IC50 (nM)>  (1) 
 13

>  <Kd (nM)>  (1) 


>  <EC50 (nM)>  (1) 


>  <kon (M-1-s-1)>  (1) 


>  <koff (s-1)>  (1) 


>  <pH>  (1) 


>  <Temp C>  (1) 


>  <Curation/DataSource>  (1) 
ChEMBL

>  <Article DOI>  (1) 
10.1021/jm031100t

>  <BindingDB Entry DOI>  (1) 
10.7270/Q25X28DX

>  <PMID>  (1) 
15115399

>  <PubChem AID>  (1) 


>  <Patent Number>  (1) 


>  <Authors>  (1) 
Cappelli, A; Pericot Mohr Gl, G; Gallelli, A; Rizzo, M; Anzini, M; Vomero, S; Mennuni, L; Ferrari, F; Makovec, F; Menziani, MC; De Benedetti, PG; Giorgi, G

>  <Institution>  (1) 
Universit&#224; di Siena

>  <Link to Ligand in BindingDB>  (1) 
http://www.bindingdb.org/bind/chemsearch/marvin/MolStructure.jsp?monomerid=50145976

>  <Link to Ligand-Target Pair in BindingDB>  (1) 
http://www.bindingdb.org/jsp/dbsearch/PrimarySearch_ki.jsp?energyterm=kJ/mole&tag=r21&monomerid=50145976&enzyme=Type-1+angiotensin+II+receptor+B&column=ki&startPg=0&Increment=50&submit=Search

>  <Ligand HET ID in PDB>  (1) 


>  <PDB ID(s) for Ligand-Target Complex>  (1) 


>  <PubChem CID of Ligand>  (1) 
11340575

>  <PubChem SID of Ligand>  (1) 
104034662

>  <ChEBI ID of Ligand>  (1) 


>  <ChEMBL ID of Ligand>  (1) 
CHEMBL315165

>  <DrugBank ID of Ligand>  (1) 


>  <IUPHAR_GRAC ID of Ligand>  (1) 


>  <KEGG ID of Ligand>  (1) 


>  <ZINC ID of Ligand>  (1) 
ZINC13560866

>  <Number of Protein Chains in Target (bigger than 1 implies a multichain complex)>  (1) 
1

>  <BindingDB Target Chain Sequence>  (1) 
MTLNSSTEDGIKRIQDDCPKAGRHNYIFVMIPTLYSIIFVVGIFGNSLVVIVIYFYMKLKTVASVFLLNLALADLCFLLTLPLWAVYTAMEYRWPFGNHLCKIASASVSFNLYASVFLLTCLSIDRYLAIVHPMKSRLRRTMLVAKVTCIIIWLMAGLASLPAVIYRNVYFIENTNITVCAFHYESQNSTLPIGLGLTKNILGFVFPFLIILTSYTLIWKALKKAYKIQKNTPRNDDIFRIIMAIVLFFFFSWVPHQIFTFLDVLIQLGIIRDCEIADIVDTAMPITICIAYFNNCLNPLFYGFLGKKFKKYFLQLLKYIPPTAKSHAGLSTKMSTLSYRPSDNMSSSAKKSASFFEVE

>  <PDB ID(s) of Target Chain>  (1) 


>  <UniProt (SwissProt) Recommended Name of Target Chain>  (1) 
Type-1 angiotensin II receptor B

>  <UniProt (SwissProt) Entry Name of Target Chain>  (1) 
AGTRB_RAT

>  <UniProt (SwissProt) Primary ID of Target Chain>  (1) 
P29089

>  <UniProt (SwissProt) Secondary ID(s) of Target Chain>  (1) 


>  <UniProt (SwissProt) Alternative ID(s) of Target Chain>  (1) 


>  <UniProt (TrEMBL) Submitted Name of Target Chain>  (1) 


>  <UniProt (TrEMBL) Entry Name of Target Chain>  (1) 


>  <UniProt (TrEMBL) Primary ID of Target Chain>  (1) 


>  <UniProt (TrEMBL) Secondary ID(s) of Target Chain>  (1) 


>  <UniProt (TrEMBL) Alternative ID(s) of Target Chain>  (1) 


$$$$
