
     RDKit          2D

 36 41  0  0  0  0  0  0  0  0999 V2000
    0.3448   -4.3222    0.0000 N   0  0  0  0  0  0  0  0  0  0  0  0
    1.1702   -4.3222    0.0000 N   0  0  0  0  0  0  0  0  0  0  0  0
    1.4243   -3.5392    0.0000 C   0  0  0  0  0  0  0  0  0  0  0  0
    0.7599   -3.0478    0.0000 N   0  0  0  0  0  0  0  0  0  0  0  0
    0.0908   -3.5392    0.0000 N   0  0  0  0  0  0  0  0  0  0  0  0
    0.0576    1.1168    0.0000 N   0  0  0  0  0  0  0  0  0  0  0  0
    0.7718    1.5281    0.0000 C   0  0  0  0  0  0  0  0  0  0  0  0
    0.7684    2.3599    0.0000 C   0  0  0  0  0  0  0  0  0  0  0  0
    0.0555    2.7712    0.0000 C   0  0  0  0  0  0  0  0  0  0  0  0
   -0.6595    1.5275    0.0000 C   0  0  0  0  0  0  0  0  0  0  0  0
   -0.6627    2.3526    0.0000 C   0  0  0  0  0  0  0  0  0  0  0  0
   -1.4486    2.6080    0.0000 N   0  0  0  0  0  0  0  0  0  0  0  0
   -1.9331    1.9377    0.0000 C   0  0  0  0  0  0  0  0  0  0  0  0
   -1.4435    1.2711    0.0000 N   0  0  0  0  0  0  0  0  0  0  0  0
   -2.7585    1.9345    0.0000 C   0  0  0  0  0  0  0  0  0  0  0  0
   -3.1715    2.6485    0.0000 C   0  0  0  0  0  0  0  0  0  0  0  0
    0.0536    3.5966    0.0000 C   0  0  0  0  0  0  0  0  0  0  0  0
    1.4885    1.1198    0.0000 C   0  0  0  0  0  0  0  0  0  0  0  0
   -1.4530    0.4489    0.0000 C   0  0  0  0  0  0  0  0  0  0  0  0
   -0.7423    0.0305    0.0000 C   0  0  0  0  0  0  0  0  0  0  0  0
   -0.7555   -0.7931    0.0000 C   0  0  0  0  0  0  0  0  0  0  0  0
   -0.0455   -1.2163    0.0000 C   0  0  0  0  0  0  0  0  0  0  0  0
   -0.0280    0.4349    0.0000 C   0  0  0  0  0  0  0  0  0  0  0  0
    0.6825    0.0203    0.0000 C   0  0  0  0  0  0  0  0  0  0  0  0
    0.6787   -0.8050    0.0000 C   0  0  0  0  0  0  0  0  0  0  0  0
    1.4626   -1.0670    0.0000 N   0  0  0  0  0  0  0  0  0  0  0  0
    1.9480   -0.4007    0.0000 C   0  0  0  0  0  0  0  0  0  0  0  0
    1.4688    0.2700    0.0000 C   0  0  0  0  0  0  0  0  0  0  0  0
    1.4530   -1.8922    0.0000 C   0  0  0  0  0  0  0  0  0  0  0  0
    2.1588   -2.3109    0.0000 C   0  0  0  0  0  0  0  0  0  0  0  0
    2.1454   -3.1342    0.0000 C   0  0  0  0  0  0  0  0  0  0  0  0
    2.8553   -3.5577    0.0000 C   0  0  0  0  0  0  0  0  0  0  0  0
    3.5766   -3.1508    0.0000 C   0  0  0  0  0  0  0  0  0  0  0  0
    3.5836   -2.3212    0.0000 C   0  0  0  0  0  0  0  0  0  0  0  0
    2.8732   -1.9063    0.0000 C   0  0  0  0  0  0  0  0  0  0  0  0
    0.7326   -2.2942    0.0000 O   0  0  0  0  0  0  0  0  0  0  0  0
  3  4  2  0
  7 18  1  0
  8  9  1  0
 14 19  1  0
  9 11  2  0
 19 20  1  0
 10 11  1  0
 20 21  2  0
  4  5  1  0
 21 22  1  0
 22 25  2  0
  5  1  2  0
 24 23  2  0
 23 20  1  0
 24 25  1  0
  1  2  1  0
 10  6  2  0
 11 12  1  0
 12 13  2  0
 25 26  1  0
 26 27  1  0
 27 28  2  0
 28 24  1  0
 13 14  1  0
 26 29  1  0
 14 10  1  0
 29 30  1  0
  6  7  1  0
 30 31  1  0
 13 15  1  0
 31 32  2  0
  2  3  1  0
 32 33  1  0
 15 16  1  0
 33 34  2  0
  7  8  2  0
 34 35  1  0
 35 30  2  0
 31  3  1  0
  9 17  1  0
 29 36  2  0
M  END
>  <From>  (1) 
www.bindingDB.org

>  <BindingDB Reactant_set_id>  (1) 
50062103

>  <Ligand InChI>  (1) 
InChI=1S/C27H24N8O/c1-4-23-29-24-16(2)13-17(3)28-26(24)35(23)15-18-9-10-22-19(14-18)11-12-34(22)27(36)21-8-6-5-7-20(21)25-30-32-33-31-25/h5-14H,4,15H2,1-3H3,(H,30,31,32,33)

>  <Ligand InChI Key>  (1) 
AFOQZUNUKPCIHO-UHFFFAOYSA-N

>  <BindingDB MonomerID>  (1) 
50043436

>  <BindingDB Ligand Name>  (1) 
CHEMBL132408::[5-(2-Ethyl-5,7-dimethyl-3H-imidazo[4,5-b]pyridin-4-ylmethyl)-indol-1-yl]-[2-(1H-tetrazol-5-yl)-phenyl]-methanone

>  <Target Name>  (1) 
Type-1 angiotensin II receptor

>  <Target Source Organism According to Curator or DataSource>  (1) 
Oryctolagus cuniculus

>  <Ki (nM)>  (1) 


>  <IC50 (nM)>  (1) 
 5

>  <Kd (nM)>  (1) 


>  <EC50 (nM)>  (1) 


>  <kon (M-1-s-1)>  (1) 


>  <koff (s-1)>  (1) 


>  <pH>  (1) 


>  <Temp C>  (1) 


>  <Curation/DataSource>  (1) 
ChEMBL

>  <Article DOI>  (1) 
10.1021/jm00078a013

>  <BindingDB Entry DOI>  (1) 
10.7270/Q26M35X0

>  <PMID>  (1) 
8277505

>  <PubChem AID>  (1) 


>  <Patent Number>  (1) 


>  <Authors>  (1) 
Dhanoa, DS; Bagley, SW; Chang, RS; Lotti, VJ; Chen, TB; Kivlighn, SD; Zingaro, GJ; Siegl, PK; Patchett, AA; Greenlee, WJ

>  <Institution>  (1) 
Merck Research Laboratories

>  <Link to Ligand in BindingDB>  (1) 
http://www.bindingdb.org/bind/chemsearch/marvin/MolStructure.jsp?monomerid=50043436

>  <Link to Ligand-Target Pair in BindingDB>  (1) 
http://www.bindingdb.org/jsp/dbsearch/PrimarySearch_ki.jsp?energyterm=kJ/mole&tag=r21&monomerid=50043436&enzyme=Type-1+angiotensin+II+receptor&column=ki&startPg=0&Increment=50&submit=Search

>  <Ligand HET ID in PDB>  (1) 


>  <PDB ID(s) for Ligand-Target Complex>  (1) 


>  <PubChem CID of Ligand>  (1) 
10367704

>  <PubChem SID of Ligand>  (1) 
103974864

>  <ChEBI ID of Ligand>  (1) 


>  <ChEMBL ID of Ligand>  (1) 
CHEMBL132408

>  <DrugBank ID of Ligand>  (1) 


>  <IUPHAR_GRAC ID of Ligand>  (1) 


>  <KEGG ID of Ligand>  (1) 


>  <ZINC ID of Ligand>  (1) 
ZINC03783775

>  <Number of Protein Chains in Target (bigger than 1 implies a multichain complex)>  (1) 
1

>  <BindingDB Target Chain Sequence>  (1) 
MMLNSSTEDGIKRIQDDCPKAGRHNYIFVMIPTLYSIIFVVGIFGNSLAVIVIYFYMKLKTVASVFLLNLALADLCFLLTLPLWAVYTAMEYRWPFGNYLCKIASASVSFNLYASVFLLTCLSIDRYLAIVHPMKSRLRRTMLVAKVTCIIIWLLAGLASLPAIIHRNVFFIENTNITVCAFHYESQNSTLPIGLGLTKNILGFLFPFLIILTSYTLIWKALKKAYEIQKNKPRNDDIFKIIMAIVLFFFFSWVPHQIFTFLDVLIQLGVIHDCRIADIVDTAMPITICIAYFNNCLNPLFYGFLGKKFKKYFLQLLKYIPPKAKSHSNLSTKMSTLSYRPSDNVSSSSKKPVPCFEVE

>  <PDB ID(s) of Target Chain>  (1) 
6DO1,6OS0,6OS1,6OS2

>  <UniProt (SwissProt) Recommended Name of Target Chain>  (1) 
Type-1 angiotensin II receptor

>  <UniProt (SwissProt) Entry Name of Target Chain>  (1) 
AGTR1_RABIT

>  <UniProt (SwissProt) Primary ID of Target Chain>  (1) 
P34976

>  <UniProt (SwissProt) Secondary ID(s) of Target Chain>  (1) 


>  <UniProt (SwissProt) Alternative ID(s) of Target Chain>  (1) 


>  <UniProt (TrEMBL) Submitted Name of Target Chain>  (1) 


>  <UniProt (TrEMBL) Entry Name of Target Chain>  (1) 


>  <UniProt (TrEMBL) Primary ID of Target Chain>  (1) 


>  <UniProt (TrEMBL) Secondary ID(s) of Target Chain>  (1) 


>  <UniProt (TrEMBL) Alternative ID(s) of Target Chain>  (1) 


$$$$
