
     RDKit          2D

 54 58  0  0  0  0  0  0  0  0999 V2000
    6.4247   -7.7189    0.0000 S   0  0  0  0  0  0  0  0  0  0  0  0
    2.8654   -6.4714    0.0000 N   0  0  0  0  0  0  0  0  0  0  0  0
    3.5320   -5.9919    0.0000 C   0  0  0  0  0  0  0  0  0  0  0  0
    2.4599   -5.2083    0.0000 N   0  0  0  0  0  0  0  0  0  0  0  0
    3.2786   -5.2083    0.0000 C   0  0  0  0  0  0  0  0  0  0  0  0
    2.2027   -5.9880    0.0000 C   0  0  0  0  0  0  0  0  0  0  0  0
    7.1381   -7.3018    0.0000 N   0  0  0  0  0  0  0  0  0  0  0  0
    5.3798   -4.3429    0.0000 S   0  0  0  0  0  0  0  0  0  0  0  0
    6.4247   -8.5415    0.0000 C   0  0  0  0  0  0  0  0  0  0  0  0
    2.8654   -7.2979    0.0000 C   0  0  0  0  0  0  0  0  0  0  0  0
    4.3195   -6.2492    0.0000 C   0  0  0  0  0  0  0  0  0  0  0  0
    7.8593   -7.7189    0.0000 C   0  0  0  0  0  0  0  0  0  0  0  0
    6.1634   -4.6002    0.0000 C   0  0  0  0  0  0  0  0  0  0  0  0
    3.5788   -7.7111    0.0000 C   0  0  0  0  0  0  0  0  0  0  0  0
    5.7112   -8.9509    0.0000 C   0  0  0  0  0  0  0  0  0  0  0  0
    4.9978   -8.5415    0.0000 C   0  0  0  0  0  0  0  0  0  0  0  0
    3.5710   -8.5415    0.0000 C   0  0  0  0  0  0  0  0  0  0  0  0
    5.7073   -8.1283    0.0000 O   0  0  0  0  0  0  0  0  0  0  0  0
    5.8399   -7.1341    0.0000 O   0  0  0  0  0  0  0  0  0  0  0  0
    4.2844   -8.9509    0.0000 C   0  0  0  0  0  0  0  0  0  0  0  0
    6.3311   -5.4072    0.0000 C   0  0  0  0  0  0  0  0  0  0  0  0
    4.9354   -5.6996    0.0000 O   0  0  0  0  0  0  0  0  0  0  0  0
    4.7951   -4.9277    0.0000 O   0  0  0  0  0  0  0  0  0  0  0  0
    5.2083   -3.5359    0.0000 C   0  0  0  0  0  0  0  0  0  0  0  0
    4.2844   -7.3018    0.0000 C   0  0  0  0  0  0  0  0  0  0  0  0
    5.7190   -5.9569    0.0000 C   0  0  0  0  0  0  0  0  0  0  0  0
    7.8593   -8.5415    0.0000 O   0  0  0  0  0  0  0  0  0  0  0  0
    4.4598   -6.8301    0.0000 O   0  0  0  0  0  0  0  0  0  0  0  0
    4.9978   -7.7111    0.0000 C   0  0  0  0  0  0  0  0  0  0  0  0
    8.5766   -7.3018    0.0000 O   0  0  0  0  0  0  0  0  0  0  0  0
    2.8537   -8.9469    0.0000 F   0  0  0  0  0  0  0  0  0  0  0  0
    3.4891   -4.4091    0.0000 C   0  0  0  0  0  0  0  0  0  0  0  0
    1.4151   -6.2375    0.0000 C   0  0  0  0  0  0  0  0  0  0  0  0
    7.1381   -8.9509    0.0000 C   0  0  0  0  0  0  0  0  0  0  0  0
    9.2900   -7.7111    0.0000 C   0  0  0  0  0  0  0  0  0  0  0  0
    6.7755   -4.0505    0.0000 C   0  0  0  0  0  0  0  0  0  0  0  0
    5.7112   -9.7812    0.0000 C   0  0  0  0  0  0  0  0  0  0  0  0
    7.1147   -5.6645    0.0000 C   0  0  0  0  0  0  0  0  0  0  0  0
    4.4248   -3.2864    0.0000 C   0  0  0  0  0  0  0  0  0  0  0  0
    5.8243   -2.9862    0.0000 C   0  0  0  0  0  0  0  0  0  0  0  0
   10.0034   -7.3018    0.0000 C   0  0  0  0  0  0  0  0  0  0  0  0
   10.7168   -7.7111    0.0000 C   0  0  0  0  0  0  0  0  0  0  0  0
    0.7992   -5.6839    0.0000 C   0  0  0  0  0  0  0  0  0  0  0  0
    2.9044   -3.8283    0.0000 C   0  0  0  0  0  0  0  0  0  0  0  0
    6.4247  -10.1983    0.0000 C   0  0  0  0  0  0  0  0  0  0  0  0
    7.5669   -4.3039    0.0000 C   0  0  0  0  0  0  0  0  0  0  0  0
    7.1458   -9.7812    0.0000 C   0  0  0  0  0  0  0  0  0  0  0  0
   10.7246   -8.5415    0.0000 C   0  0  0  0  0  0  0  0  0  0  0  0
   11.4380   -7.3018    0.0000 C   0  0  0  0  0  0  0  0  0  0  0  0
    7.7345   -5.1148    0.0000 C   0  0  0  0  0  0  0  0  0  0  0  0
    0.0156   -5.9335    0.0000 C   0  0  0  0  0  0  0  0  0  0  0  0
    5.6528   -2.1793    0.0000 C   0  0  0  0  0  0  0  0  0  0  0  0
    4.2493   -2.4794    0.0000 C   0  0  0  0  0  0  0  0  0  0  0  0
    4.8653   -1.9220    0.0000 C   0  0  0  0  0  0  0  0  0  0  0  0
  2 10  1  0
  3  2  1  0
  4  6  2  0
  5  3  2  0
  6  2  1  0
  7  1  1  0
  8 13  1  0
  9  1  1  0
 10 14  1  0
 11  3  1  0
 12  7  1  0
 13 21  1  0
 14 25  2  0
 15  9  2  0
 16 15  1  0
 17 20  2  0
 18  1  2  0
 19  1  2  0
 20 16  1  0
 21 26  1  0
 22 11  1  0
 23  8  2  0
 24  8  1  0
 25 29  1  0
 26 22  1  0
 27 12  2  0
 28 11  2  0
 29 16  2  0
 30 12  1  0
 31 17  1  0
 32  5  1  0
 33  6  1  0
 34  9  1  0
 35 30  1  0
 36 13  2  0
 37 15  1  0
 38 21  2  0
 39 24  2  0
 40 24  1  0
 41 35  1  0
 42 41  1  0
 43 33  1  0
 44 32  1  0
 45 47  1  0
 46 50  2  0
 47 34  2  0
 48 42  1  0
 49 42  1  0
 50 38  1  0
 51 43  1  0
 52 40  2  0
 53 39  1  0
 54 52  1  0
 45 37  2  0
 17 14  1  0
  4  5  1  0
 46 36  1  0
 54 53  2  0
M  END
>  <From>  (1) 
www.bindingDB.org

>  <BindingDB Reactant_set_id>  (1) 
50469138

>  <Ligand InChI>  (1) 
InChI=1S/C41H44FN3O7S2/c1-5-14-38-43-35(6-2)39(40(46)52-27-31-15-10-12-19-36(31)53(48)32-16-8-7-9-17-32)45(38)26-30-22-21-29(25-34(30)42)33-18-11-13-20-37(33)54(49,50)44-41(47)51-24-23-28(3)4/h7-13,15-22,25,28H,5-6,14,23-24,26-27H2,1-4H3,(H,44,47)

>  <Ligand InChI Key>  (1) 
BELHLEZQMOGSQN-UHFFFAOYSA-N

>  <BindingDB MonomerID>  (1) 
50283207

>  <BindingDB Ligand Name>  (1) 
Biphenylsulfonylcarbamate compound::CHEMBL73283

>  <Target Name>  (1) 
Type-1 angiotensin II receptor

>  <Target Source Organism According to Curator or DataSource>  (1) 
Homo sapiens

>  <Ki (nM)>  (1) 


>  <IC50 (nM)>  (1) 
 0.200000

>  <Kd (nM)>  (1) 


>  <EC50 (nM)>  (1) 


>  <kon (M-1-s-1)>  (1) 


>  <koff (s-1)>  (1) 


>  <pH>  (1) 


>  <Temp C>  (1) 


>  <Curation/DataSource>  (1) 
ChEMBL

>  <Article DOI>  (1) 
10.1016/S0960-894X(00)80077-3

>  <BindingDB Entry DOI>  (1) 
10.7270/Q2DZ088W

>  <PMID>  (1) 


>  <PubChem AID>  (1) 


>  <Patent Number>  (1) 


>  <Authors>  (1) 
Santella, JB; Duncia, JV; Ensinger, CL; VanAtten, MK; Carini, DJ; Wexler, RR; Chiu, AT; Wong, PC; Timmermans, PB

>  <Institution>  (1) 
TBA

>  <Link to Ligand in BindingDB>  (1) 
http://www.bindingdb.org/bind/chemsearch/marvin/MolStructure.jsp?monomerid=50283207

>  <Link to Ligand-Target Pair in BindingDB>  (1) 
http://www.bindingdb.org/jsp/dbsearch/PrimarySearch_ki.jsp?energyterm=kJ/mole&tag=r21&monomerid=50283207&enzyme=Type-1+angiotensin+II+receptor&column=ki&startPg=0&Increment=50&submit=Search

>  <Ligand HET ID in PDB>  (1) 


>  <PDB ID(s) for Ligand-Target Complex>  (1) 


>  <PubChem CID of Ligand>  (1) 
44311753

>  <PubChem SID of Ligand>  (1) 
104124881

>  <ChEBI ID of Ligand>  (1) 


>  <ChEMBL ID of Ligand>  (1) 
CHEMBL73283

>  <DrugBank ID of Ligand>  (1) 


>  <IUPHAR_GRAC ID of Ligand>  (1) 


>  <KEGG ID of Ligand>  (1) 


>  <ZINC ID of Ligand>  (1) 
ZINC95550338

>  <Number of Protein Chains in Target (bigger than 1 implies a multichain complex)>  (1) 
1

>  <BindingDB Target Chain Sequence>  (1) 
MILNSSTEDGIKRIQDDCPKAGRHNYIFVMIPTLYSIIFVVGIFGNSLVVIVIYFYMKLKTVASVFLLNLALADLCFLLTLPLWAVYTAMEYRWPFGNYLCKIASASVSFNLYASVFLLTCLSIDRYLAIVHPMKSRLRRTMLVAKVTCIIIWLLAGLASLPAIIHRNVFFIENTNITVCAFHYESQNSTLPIGLGLTKNILGFLFPFLIILTSYTLIWKALKKAYEIQKNKPRNDDIFKIIMAIVLFFFFSWIPHQIFTFLDVLIQLGIIRDCRIADIVDTAMPITICIAYFNNCLNPLFYGFLGKKFKRYFLQLLKYIPPKAKSHSNLSTKMSTLSYRPSDNVSSSTKKPAPCFEVE

>  <PDB ID(s) of Target Chain>  (1) 
6DO1,6OS0,6OS1,6OS2

>  <UniProt (SwissProt) Recommended Name of Target Chain>  (1) 
Type-1 angiotensin II receptor

>  <UniProt (SwissProt) Entry Name of Target Chain>  (1) 
AGTR1_HUMAN

>  <UniProt (SwissProt) Primary ID of Target Chain>  (1) 
P30556

>  <UniProt (SwissProt) Secondary ID(s) of Target Chain>  (1) 
Q13725 Q8TBK4

>  <UniProt (SwissProt) Alternative ID(s) of Target Chain>  (1) 


>  <UniProt (TrEMBL) Submitted Name of Target Chain>  (1) 


>  <UniProt (TrEMBL) Entry Name of Target Chain>  (1) 


>  <UniProt (TrEMBL) Primary ID of Target Chain>  (1) 


>  <UniProt (TrEMBL) Secondary ID(s) of Target Chain>  (1) 


>  <UniProt (TrEMBL) Alternative ID(s) of Target Chain>  (1) 


$$$$
