
     RDKit          2D

 35 38  0  0  1  0  0  0  0  0999 V2000
    4.6096   -3.0328    0.0000 N   0  0  0  0  0  0  0  0  0  0  0  0
    4.2060   -4.2976    0.0000 N   0  0  0  0  0  0  0  0  0  0  0  0
    5.2836   -3.5113    0.0000 C   0  0  0  0  0  0  0  0  0  0  0  0
    7.9045   -4.8967    0.0000 C   0  0  0  0  0  0  0  0  0  0  0  0
    3.9481   -3.5113    0.0000 C   0  0  0  0  0  0  0  0  0  0  0  0
    8.0543   -6.2321    0.0000 N   0  0  0  0  0  0  0  0  0  0  0  0
    5.0298   -4.2976    0.0000 C   0  0  0  0  0  0  0  0  0  0  0  0
    8.4662   -5.5207    0.0000 C   0  0  0  0  0  0  0  0  0  0  0  0
    7.1682   -5.2336    0.0000 C   0  0  0  0  0  0  0  0  0  0  0  0
    7.6299   -2.7375    0.0000 C   0  0  0  0  0  0  0  0  0  0  0  0
    1.7515   -0.5616    0.0000 C   0  0  0  0  0  0  0  0  0  0  0  0
    8.0751   -4.0979    0.0000 C   0  0  0  0  0  0  0  0  0  0  0  0
    7.4552   -3.5487    0.0000 C   0  0  0  0  0  0  0  0  0  0  0  0
    6.6772   -3.7983    0.0000 N   0  0  0  0  0  0  0  0  0  0  0  0
    4.6096   -2.2091    0.0000 C   0  0  0  0  0  0  0  0  0  0  0  0
    7.2513   -6.0532    0.0000 C   0  0  0  0  0  0  0  0  0  0  0  0
    6.0657   -3.2575    0.0000 C   0  0  0  0  0  0  0  0  0  0  0  0
    2.4629   -0.9652    0.0000 C   0  0  0  0  0  0  0  0  0  0  0  0
    7.0142   -2.1883    0.0000 O   0  0  0  0  0  0  0  0  0  0  0  0
    1.0401   -0.9735    0.0000 O   0  0  0  0  0  0  0  0  0  0  0  0
    3.1743   -0.5533    0.0000 C   0  0  0  0  0  0  0  0  0  0  0  0
    2.4629   -1.7972    0.0000 C   0  0  0  0  0  0  0  0  0  0  0  0
    3.8940   -1.7972    0.0000 C   0  0  0  0  0  0  0  0  0  0  0  0
    8.4120   -2.4837    0.0000 O   0  0  0  0  0  0  0  0  0  0  0  0
    1.7515    0.2621    0.0000 O   0  0  0  0  0  0  0  0  0  0  0  0
    3.1743   -2.2091    0.0000 C   0  0  0  0  0  0  0  0  0  0  0  0
    3.8940   -0.9652    0.0000 C   0  0  0  0  0  0  0  0  0  0  0  0
    3.2325   -3.9190    0.0000 C   0  0  0  0  0  0  0  0  0  0  0  0
    6.4151   -4.8967    0.0000 C   0  0  0  0  0  0  0  0  0  0  0  0
    6.5816   -6.5316    0.0000 C   0  0  0  0  0  0  0  0  0  0  0  0
    2.5211   -3.4988    0.0000 C   0  0  0  0  0  0  0  0  0  0  0  0
    1.8014   -3.9065    0.0000 C   0  0  0  0  0  0  0  0  0  0  0  0
    5.7453   -5.3792    0.0000 C   0  0  0  0  0  0  0  0  0  0  0  0
    1.0900   -3.4863    0.0000 C   0  0  0  0  0  0  0  0  0  0  0  0
    5.8327   -6.1947    0.0000 C   0  0  0  0  0  0  0  0  0  0  0  0
  2  5  2  0
  3  1  1  0
  4 12  1  0
  5  1  1  0
  6  8  1  0
  7  3  2  0
  8  4  2  0
  9  4  1  0
 13 10  1  0
 11 18  1  0
 13 12  1  6
 13 14  1  0
 14 17  1  0
 15  1  1  0
 16  9  2  0
 17  3  1  0
 18 21  2  0
 19 10  2  0
 20 11  2  0
 21 27  1  0
 22 26  2  0
 23 15  1  0
 24 10  1  0
 25 11  1  0
 26 23  1  0
 27 23  2  0
 28  5  1  0
 29  9  1  0
 30 16  1  0
 31 28  1  0
 32 31  1  0
 33 29  2  0
 34 32  1  0
 35 33  1  0
  2  7  1  0
 22 18  1  0
 16  6  1  0
 35 30  2  0
M  END
>  <From>  (1) 
www.bindingDB.org

>  <BindingDB Reactant_set_id>  (1) 
50471374

>  <Ligand InChI>  (1) 
InChI=1S/C27H30N4O4/c1-2-3-8-25-30-16-21(31(25)17-18-9-11-19(12-10-18)26(32)33)15-29-24(27(34)35)13-20-14-28-23-7-5-4-6-22(20)23/h4-7,9-12,14,16,24,28-29H,2-3,8,13,15,17H2,1H3,(H,32,33)(H,34,35)/t24-/m0/s1

>  <Ligand InChI Key>  (1) 
DCFBATSJOUZLFK-DEOSSOPVSA-N

>  <BindingDB MonomerID>  (1) 
50284298

>  <BindingDB Ligand Name>  (1) 
4-(2-Butyl-5-{[(S)-1-carboxy-2-(1H-indol-3-yl)-ethylamino]-methyl}-imidazol-1-ylmethyl)-benzoic acid::CHEMBL310752

>  <Target Name>  (1) 
Type-1 angiotensin II receptor

>  <Target Source Organism According to Curator or DataSource>  (1) 
Homo sapiens

>  <Ki (nM)>  (1) 


>  <IC50 (nM)>  (1) 
 48.3

>  <Kd (nM)>  (1) 


>  <EC50 (nM)>  (1) 


>  <kon (M-1-s-1)>  (1) 


>  <koff (s-1)>  (1) 


>  <pH>  (1) 


>  <Temp C>  (1) 


>  <Curation/DataSource>  (1) 
ChEMBL

>  <Article DOI>  (1) 
10.1016/0960-894X(94)00456-P

>  <BindingDB Entry DOI>  (1) 
10.7270/Q2GF0TF6

>  <PMID>  (1) 


>  <PubChem AID>  (1) 


>  <Patent Number>  (1) 


>  <Authors>  (1) 
Hill, DT; Girard, GR; Weinstock, J; Edwards, RM; Weidley, EF; Ohlstein, E; Peishoff, CE; Baker, E; Aiyar, N

>  <Institution>  (1) 
TBA

>  <Link to Ligand in BindingDB>  (1) 
http://www.bindingdb.org/bind/chemsearch/marvin/MolStructure.jsp?monomerid=50284298

>  <Link to Ligand-Target Pair in BindingDB>  (1) 
http://www.bindingdb.org/jsp/dbsearch/PrimarySearch_ki.jsp?energyterm=kJ/mole&tag=r21&monomerid=50284298&enzyme=Type-1+angiotensin+II+receptor&column=ki&startPg=0&Increment=50&submit=Search

>  <Ligand HET ID in PDB>  (1) 


>  <PDB ID(s) for Ligand-Target Complex>  (1) 


>  <PubChem CID of Ligand>  (1) 
44317214

>  <PubChem SID of Ligand>  (1) 
104125955

>  <ChEBI ID of Ligand>  (1) 


>  <ChEMBL ID of Ligand>  (1) 
CHEMBL310752

>  <DrugBank ID of Ligand>  (1) 


>  <IUPHAR_GRAC ID of Ligand>  (1) 


>  <KEGG ID of Ligand>  (1) 


>  <ZINC ID of Ligand>  (1) 
ZINC26485889

>  <Number of Protein Chains in Target (bigger than 1 implies a multichain complex)>  (1) 
1

>  <BindingDB Target Chain Sequence>  (1) 
MILNSSTEDGIKRIQDDCPKAGRHNYIFVMIPTLYSIIFVVGIFGNSLVVIVIYFYMKLKTVASVFLLNLALADLCFLLTLPLWAVYTAMEYRWPFGNYLCKIASASVSFNLYASVFLLTCLSIDRYLAIVHPMKSRLRRTMLVAKVTCIIIWLLAGLASLPAIIHRNVFFIENTNITVCAFHYESQNSTLPIGLGLTKNILGFLFPFLIILTSYTLIWKALKKAYEIQKNKPRNDDIFKIIMAIVLFFFFSWIPHQIFTFLDVLIQLGIIRDCRIADIVDTAMPITICIAYFNNCLNPLFYGFLGKKFKRYFLQLLKYIPPKAKSHSNLSTKMSTLSYRPSDNVSSSTKKPAPCFEVE

>  <PDB ID(s) of Target Chain>  (1) 
6DO1,6OS0,6OS1,6OS2

>  <UniProt (SwissProt) Recommended Name of Target Chain>  (1) 
Type-1 angiotensin II receptor

>  <UniProt (SwissProt) Entry Name of Target Chain>  (1) 
AGTR1_HUMAN

>  <UniProt (SwissProt) Primary ID of Target Chain>  (1) 
P30556

>  <UniProt (SwissProt) Secondary ID(s) of Target Chain>  (1) 
Q13725 Q8TBK4

>  <UniProt (SwissProt) Alternative ID(s) of Target Chain>  (1) 


>  <UniProt (TrEMBL) Submitted Name of Target Chain>  (1) 


>  <UniProt (TrEMBL) Entry Name of Target Chain>  (1) 


>  <UniProt (TrEMBL) Primary ID of Target Chain>  (1) 


>  <UniProt (TrEMBL) Secondary ID(s) of Target Chain>  (1) 


>  <UniProt (TrEMBL) Alternative ID(s) of Target Chain>  (1) 


$$$$
