
     RDKit          2D

 39 43  0  0  0  0  0  0  0  0999 V2000
    2.0792   -1.7542    0.0000 C   0  0  0  0  0  0  0  0  0  0  0  0
    1.4167   -2.2417    0.0000 N   0  0  0  0  0  0  0  0  0  0  0  0
    1.8292   -0.9667    0.0000 N   0  0  0  0  0  0  0  0  0  0  0  0
    2.9042   -1.7542    0.0000 S   0  0  0  0  0  0  0  0  0  0  0  0
    1.0042   -0.9667    0.0000 N   0  0  0  0  0  0  0  0  0  0  0  0
    4.9750   -3.4750    0.0000 C   0  0  0  0  0  0  0  0  0  0  0  0
    4.5417   -2.2042    0.0000 N   0  0  0  0  0  0  0  0  0  0  0  0
    1.6500    1.8208    0.0000 N   0  0  0  0  0  0  0  0  0  0  0  0
    0.7500   -1.7542    0.0000 C   0  0  0  0  0  0  0  0  0  0  0  0
    4.3000   -2.9917    0.0000 N   0  0  0  0  0  0  0  0  0  0  0  0
    5.3750   -2.2000    0.0000 N   0  0  0  0  0  0  0  0  0  0  0  0
    5.6375   -2.9792    0.0000 N   0  0  0  0  0  0  0  0  0  0  0  0
    4.9792   -4.3042    0.0000 C   0  0  0  0  0  0  0  0  0  0  0  0
    4.2750   -4.7167    0.0000 C   0  0  0  0  0  0  0  0  0  0  0  0
    1.4167   -3.0667    0.0000 C   0  0  0  0  0  0  0  0  0  0  0  0
    2.0667    1.1083    0.0000 C   0  0  0  0  0  0  0  0  0  0  0  0
    2.0625    2.5375    0.0000 O   0  0  0  0  0  0  0  0  0  0  0  0
    3.3167   -1.0375    0.0000 C   0  0  0  0  0  0  0  0  0  0  0  0
    0.8250    1.8208    0.0000 O   0  0  0  0  0  0  0  0  0  0  0  0
    3.5542   -4.3042    0.0000 C   0  0  0  0  0  0  0  0  0  0  0  0
    3.3167   -2.4667    0.0000 O   0  0  0  0  0  0  0  0  0  0  0  0
    2.8917    1.1083    0.0000 C   0  0  0  0  0  0  0  0  0  0  0  0
    1.6625    0.3833    0.0000 C   0  0  0  0  0  0  0  0  0  0  0  0
    3.5542   -3.4792    0.0000 C   0  0  0  0  0  0  0  0  0  0  0  0
    2.8500   -4.7167    0.0000 C   0  0  0  0  0  0  0  0  0  0  0  0
    2.1292   -3.4792    0.0000 C   0  0  0  0  0  0  0  0  0  0  0  0
    2.9000   -0.3250    0.0000 C   0  0  0  0  0  0  0  0  0  0  0  0
    2.1292   -4.3042    0.0000 C   0  0  0  0  0  0  0  0  0  0  0  0
    2.8417   -3.0667    0.0000 C   0  0  0  0  0  0  0  0  0  0  0  0
    3.3125    0.3958    0.0000 C   0  0  0  0  0  0  0  0  0  0  0  0
    2.0792   -0.3292    0.0000 C   0  0  0  0  0  0  0  0  0  0  0  0
   -0.0750   -1.7542    0.0000 C   0  0  0  0  0  0  0  0  0  0  0  0
    5.6917   -4.7125    0.0000 C   0  0  0  0  0  0  0  0  0  0  0  0
    4.2667   -5.5417    0.0000 C   0  0  0  0  0  0  0  0  0  0  0  0
   -0.4875   -1.0417    0.0000 C   0  0  0  0  0  0  0  0  0  0  0  0
   -1.3125   -1.0417    0.0000 C   0  0  0  0  0  0  0  0  0  0  0  0
    5.7000   -5.5417    0.0000 C   0  0  0  0  0  0  0  0  0  0  0  0
    4.9792   -5.9542    0.0000 C   0  0  0  0  0  0  0  0  0  0  0  0
   -1.7250   -0.3250    0.0000 C   0  0  0  0  0  0  0  0  0  0  0  0
  2  1  1  0
  3  1  2  0
  4  1  1  0
  5  3  1  0
  6 13  1  0
  7 10  1  0
  8 16  1  0
  9  2  1  0
 10  6  1  0
 11 12  1  0
 12  6  2  0
 13 14  1  0
 14 20  1  0
 15  2  1  0
 16 23  2  0
 17  8  1  0
 18  4  1  0
 19  8  2  0
 20 24  2  0
 21  4  2  0
 22 30  2  0
 23 31  1  0
 24 29  1  0
 25 28  2  0
 26 15  1  0
 27 18  1  0
 28 26  1  0
 29 26  2  0
 30 27  1  0
 31 27  2  0
 32  9  1  0
 33 13  2  0
 34 14  2  0
 35 32  1  0
 36 35  1  0
 37 38  2  0
 38 34  1  0
 39 36  1  0
  5  9  2  0
 22 16  1  0
 25 20  1  0
 33 37  1  0
 11  7  2  0
M  CHG  2   8   1  17  -1
M  END
>  <From>  (1) 
www.bindingDB.org

>  <BindingDB Reactant_set_id>  (1) 
50034923

>  <Ligand InChI>  (1) 
InChI=1S/C27H26N8O3S/c1-2-3-8-25-28-31-27(39(38)18-20-11-15-22(16-12-20)35(36)37)34(25)17-19-9-13-21(14-10-19)23-6-4-5-7-24(23)26-29-32-33-30-26/h4-7,9-16H,2-3,8,17-18H2,1H3,(H,29,30,32,33)

>  <Ligand InChI Key>  (1) 
YRUYOXTUVASEKM-UHFFFAOYSA-N

>  <BindingDB MonomerID>  (1) 
50047827

>  <BindingDB Ligand Name>  (1) 
5-{4'-[3-Butyl-5-(4-nitro-phenylmethanesulfinyl)-[1,2,4]triazol-4-ylmethyl]-biphenyl-2-yl}-1H-tetrazole::CHEMBL434844

>  <Target Name>  (1) 
Type-1 angiotensin II receptor

>  <Target Source Organism According to Curator or DataSource>  (1) 
Oryctolagus cuniculus

>  <Ki (nM)>  (1) 


>  <IC50 (nM)>  (1) 
 8.9

>  <Kd (nM)>  (1) 


>  <EC50 (nM)>  (1) 


>  <kon (M-1-s-1)>  (1) 


>  <koff (s-1)>  (1) 


>  <pH>  (1) 


>  <Temp C>  (1) 


>  <Curation/DataSource>  (1) 
ChEMBL

>  <Article DOI>  (1) 
10.1021/jm00057a009

>  <BindingDB Entry DOI>  (1) 
10.7270/Q2P55MKH

>  <PMID>  (1) 
8496939

>  <PubChem AID>  (1) 


>  <Patent Number>  (1) 


>  <Authors>  (1) 
Ashton, WT; Cantone, CL; Chang, LL; Hutchins, SM; Strelitz, RA; MacCoss, M; Chang, RS; Lotti, VJ; Faust, KA; Chen, TB

>  <Institution>  (1) 
Merck Research Laboratories

>  <Link to Ligand in BindingDB>  (1) 
http://www.bindingdb.org/bind/chemsearch/marvin/MolStructure.jsp?monomerid=50047827

>  <Link to Ligand-Target Pair in BindingDB>  (1) 
http://www.bindingdb.org/jsp/dbsearch/PrimarySearch_ki.jsp?energyterm=kJ/mole&tag=r21&monomerid=50047827&enzyme=Type-1+angiotensin+II+receptor&column=ki&startPg=0&Increment=50&submit=Search

>  <Ligand HET ID in PDB>  (1) 


>  <PDB ID(s) for Ligand-Target Complex>  (1) 


>  <PubChem CID of Ligand>  (1) 
10392565

>  <PubChem SID of Ligand>  (1) 
103978391

>  <ChEBI ID of Ligand>  (1) 


>  <ChEMBL ID of Ligand>  (1) 
CHEMBL434844

>  <DrugBank ID of Ligand>  (1) 


>  <IUPHAR_GRAC ID of Ligand>  (1) 


>  <KEGG ID of Ligand>  (1) 


>  <ZINC ID of Ligand>  (1) 
ZINC27657950

>  <Number of Protein Chains in Target (bigger than 1 implies a multichain complex)>  (1) 
1

>  <BindingDB Target Chain Sequence>  (1) 
MMLNSSTEDGIKRIQDDCPKAGRHNYIFVMIPTLYSIIFVVGIFGNSLAVIVIYFYMKLKTVASVFLLNLALADLCFLLTLPLWAVYTAMEYRWPFGNYLCKIASASVSFNLYASVFLLTCLSIDRYLAIVHPMKSRLRRTMLVAKVTCIIIWLLAGLASLPAIIHRNVFFIENTNITVCAFHYESQNSTLPIGLGLTKNILGFLFPFLIILTSYTLIWKALKKAYEIQKNKPRNDDIFKIIMAIVLFFFFSWVPHQIFTFLDVLIQLGVIHDCRIADIVDTAMPITICIAYFNNCLNPLFYGFLGKKFKKYFLQLLKYIPPKAKSHSNLSTKMSTLSYRPSDNVSSSSKKPVPCFEVE

>  <PDB ID(s) of Target Chain>  (1) 
6DO1,6OS0,6OS1,6OS2

>  <UniProt (SwissProt) Recommended Name of Target Chain>  (1) 
Type-1 angiotensin II receptor

>  <UniProt (SwissProt) Entry Name of Target Chain>  (1) 
AGTR1_RABIT

>  <UniProt (SwissProt) Primary ID of Target Chain>  (1) 
P34976

>  <UniProt (SwissProt) Secondary ID(s) of Target Chain>  (1) 


>  <UniProt (SwissProt) Alternative ID(s) of Target Chain>  (1) 


>  <UniProt (TrEMBL) Submitted Name of Target Chain>  (1) 


>  <UniProt (TrEMBL) Entry Name of Target Chain>  (1) 


>  <UniProt (TrEMBL) Primary ID of Target Chain>  (1) 


>  <UniProt (TrEMBL) Secondary ID(s) of Target Chain>  (1) 


>  <UniProt (TrEMBL) Alternative ID(s) of Target Chain>  (1) 


$$$$
