
     RDKit          2D

 31 35  0  0  0  0  0  0  0  0999 V2000
    3.8917   -3.1292    0.0000 N   0  0  0  0  0  0  0  0  0  0  0  0
    3.8917   -1.7917    0.0000 N   0  0  0  0  0  0  0  0  0  0  0  0
    3.1125   -2.8750    0.0000 C   0  0  0  0  0  0  0  0  0  0  0  0
    4.3792   -2.4667    0.0000 C   0  0  0  0  0  0  0  0  0  0  0  0
    7.6667   -3.2167    0.0000 C   0  0  0  0  0  0  0  0  0  0  0  0
    3.1125   -2.0500    0.0000 C   0  0  0  0  0  0  0  0  0  0  0  0
    7.9250   -4.0042    0.0000 C   0  0  0  0  0  0  0  0  0  0  0  0
    6.9250   -2.8792    0.0000 N   0  0  0  0  0  0  0  0  0  0  0  0
    7.0125   -2.0542    0.0000 N   0  0  0  0  0  0  0  0  0  0  0  0
    8.2250   -2.6125    0.0000 N   0  0  0  0  0  0  0  0  0  0  0  0
    7.8167   -1.9000    0.0000 N   0  0  0  0  0  0  0  0  0  0  0  0
    7.3667   -4.6167    0.0000 C   0  0  0  0  0  0  0  0  0  0  0  0
    2.4000   -3.2875    0.0000 N   0  0  0  0  0  0  0  0  0  0  0  0
    4.1500   -3.9167    0.0000 C   0  0  0  0  0  0  0  0  0  0  0  0
    7.6250   -5.4000    0.0000 N   0  0  0  0  0  0  0  0  0  0  0  0
    6.5667   -4.4417    0.0000 C   0  0  0  0  0  0  0  0  0  0  0  0
    2.4000   -1.6375    0.0000 C   0  0  0  0  0  0  0  0  0  0  0  0
    6.0125   -5.0500    0.0000 C   0  0  0  0  0  0  0  0  0  0  0  0
    6.3125   -3.6542    0.0000 C   0  0  0  0  0  0  0  0  0  0  0  0
    4.9542   -4.0917    0.0000 C   0  0  0  0  0  0  0  0  0  0  0  0
    5.2042   -2.4667    0.0000 C   0  0  0  0  0  0  0  0  0  0  0  0
    8.7292   -4.1792    0.0000 C   0  0  0  0  0  0  0  0  0  0  0  0
    1.6792   -2.8750    0.0000 C   0  0  0  0  0  0  0  0  0  0  0  0
    5.5042   -3.4792    0.0000 C   0  0  0  0  0  0  0  0  0  0  0  0
    5.2042   -4.8750    0.0000 C   0  0  0  0  0  0  0  0  0  0  0  0
    8.4292   -5.5750    0.0000 C   0  0  0  0  0  0  0  0  0  0  0  0
    1.6792   -2.0500    0.0000 C   0  0  0  0  0  0  0  0  0  0  0  0
    2.4000   -0.8125    0.0000 C   0  0  0  0  0  0  0  0  0  0  0  0
    5.6167   -1.7542    0.0000 C   0  0  0  0  0  0  0  0  0  0  0  0
    8.9792   -4.9667    0.0000 C   0  0  0  0  0  0  0  0  0  0  0  0
    6.4417   -1.7625    0.0000 C   0  0  0  0  0  0  0  0  0  0  0  0
  2  4  2  0
  3  1  1  0
  4  1  1  0
  5  7  1  0
  6  3  2  0
  7 12  1  0
  8  5  1  0
  9  8  1  0
 10  5  2  0
 11 10  1  0
 12 16  1  0
 13  3  1  0
 14  1  1  0
 15 12  2  0
 16 18  2  0
 17  6  1  0
 18 25  1  0
 19 24  2  0
 20 14  1  0
 21  4  1  0
 22  7  2  0
 23 13  2  0
 24 20  1  0
 25 20  2  0
 26 15  1  0
 27 23  1  0
 28 17  1  0
 29 21  1  0
 30 26  2  0
 31 29  1  0
  2  6  1  0
 16 19  1  0
 17 27  2  0
 22 30  1  0
 11  9  2  0
M  END
>  <From>  (1) 
www.bindingDB.org

>  <BindingDB Reactant_set_id>  (1) 
50002521

>  <Ligand InChI>  (1) 
InChI=1S/C23H22N8/c1-3-5-19-26-20-15(2)11-13-25-23(20)31(19)14-16-7-9-17(10-8-16)21-18(6-4-12-24-21)22-27-29-30-28-22/h4,6-13H,3,5,14H2,1-2H3,(H,27,28,29,30)

>  <Ligand InChI Key>  (1) 
RCGLZCPMWOMFGZ-UHFFFAOYSA-N

>  <BindingDB MonomerID>  (1) 
50145985

>  <BindingDB Ligand Name>  (1) 
7-Methyl-2-propyl-3-{4-[3-(2H-tetrazol-5-yl)-pyridin-2-yl]-benzyl}-3H-imidazo[4,5-b]pyridine::CHEMBL410939

>  <Target Name>  (1) 
Type-1 angiotensin II receptor

>  <Target Source Organism According to Curator or DataSource>  (1) 
Oryctolagus cuniculus

>  <Ki (nM)>  (1) 


>  <IC50 (nM)>  (1) 
 116

>  <Kd (nM)>  (1) 


>  <EC50 (nM)>  (1) 


>  <kon (M-1-s-1)>  (1) 


>  <koff (s-1)>  (1) 


>  <pH>  (1) 


>  <Temp C>  (1) 


>  <Curation/DataSource>  (1) 
ChEMBL

>  <Article DOI>  (1) 
10.1016/S0960-894X(00)80044-X

>  <BindingDB Entry DOI>  (1) 
10.7270/Q2CF9Q12

>  <PMID>  (1) 


>  <PubChem AID>  (1) 


>  <Patent Number>  (1) 


>  <Authors>  (1) 
Mantlo, N; Chang, RS; Siegl, P

>  <Institution>  (1) 
TBA

>  <Link to Ligand in BindingDB>  (1) 
http://www.bindingdb.org/bind/chemsearch/marvin/MolStructure.jsp?monomerid=50145985

>  <Link to Ligand-Target Pair in BindingDB>  (1) 
http://www.bindingdb.org/jsp/dbsearch/PrimarySearch_ki.jsp?energyterm=kJ/mole&tag=r21&monomerid=50145985&enzyme=Type-1+angiotensin+II+receptor&column=ki&startPg=0&Increment=50&submit=Search

>  <Ligand HET ID in PDB>  (1) 


>  <PDB ID(s) for Ligand-Target Complex>  (1) 


>  <PubChem CID of Ligand>  (1) 
19889359

>  <PubChem SID of Ligand>  (1) 
104034671

>  <ChEBI ID of Ligand>  (1) 


>  <ChEMBL ID of Ligand>  (1) 
CHEMBL410939

>  <DrugBank ID of Ligand>  (1) 


>  <IUPHAR_GRAC ID of Ligand>  (1) 


>  <KEGG ID of Ligand>  (1) 


>  <ZINC ID of Ligand>  (1) 
ZINC13560870

>  <Number of Protein Chains in Target (bigger than 1 implies a multichain complex)>  (1) 
1

>  <BindingDB Target Chain Sequence>  (1) 
MMLNSSTEDGIKRIQDDCPKAGRHNYIFVMIPTLYSIIFVVGIFGNSLAVIVIYFYMKLKTVASVFLLNLALADLCFLLTLPLWAVYTAMEYRWPFGNYLCKIASASVSFNLYASVFLLTCLSIDRYLAIVHPMKSRLRRTMLVAKVTCIIIWLLAGLASLPAIIHRNVFFIENTNITVCAFHYESQNSTLPIGLGLTKNILGFLFPFLIILTSYTLIWKALKKAYEIQKNKPRNDDIFKIIMAIVLFFFFSWVPHQIFTFLDVLIQLGVIHDCRIADIVDTAMPITICIAYFNNCLNPLFYGFLGKKFKKYFLQLLKYIPPKAKSHSNLSTKMSTLSYRPSDNVSSSSKKPVPCFEVE

>  <PDB ID(s) of Target Chain>  (1) 
6DO1,6OS0,6OS1,6OS2

>  <UniProt (SwissProt) Recommended Name of Target Chain>  (1) 
Type-1 angiotensin II receptor

>  <UniProt (SwissProt) Entry Name of Target Chain>  (1) 
AGTR1_RABIT

>  <UniProt (SwissProt) Primary ID of Target Chain>  (1) 
P34976

>  <UniProt (SwissProt) Secondary ID(s) of Target Chain>  (1) 


>  <UniProt (SwissProt) Alternative ID(s) of Target Chain>  (1) 


>  <UniProt (TrEMBL) Submitted Name of Target Chain>  (1) 


>  <UniProt (TrEMBL) Entry Name of Target Chain>  (1) 


>  <UniProt (TrEMBL) Primary ID of Target Chain>  (1) 


>  <UniProt (TrEMBL) Secondary ID(s) of Target Chain>  (1) 


>  <UniProt (TrEMBL) Alternative ID(s) of Target Chain>  (1) 


$$$$
