
     RDKit          2D

 46 51  0  0  0  0  0  0  0  0999 V2000
    5.4792   -5.9250    0.0000 N   0  0  0  0  0  0  0  0  0  0  0  0
    4.7667   -5.5042    0.0000 C   0  0  0  0  0  0  0  0  0  0  0  0
    4.0542   -5.9250    0.0000 C   0  0  0  0  0  0  0  0  0  0  0  0
    5.4792   -6.7542    0.0000 C   0  0  0  0  0  0  0  0  0  0  0  0
    4.7667   -7.1667    0.0000 N   0  0  0  0  0  0  0  0  0  0  0  0
    8.3292   -8.4042    0.0000 C   0  0  0  0  0  0  0  0  0  0  0  0
    7.5792   -8.0667    0.0000 N   0  0  0  0  0  0  0  0  0  0  0  0
    7.0250   -8.6792    0.0000 N   0  0  0  0  0  0  0  0  0  0  0  0
    8.2417   -9.2292    0.0000 N   0  0  0  0  0  0  0  0  0  0  0  0
    4.0500   -6.7500    0.0000 C   0  0  0  0  0  0  0  0  0  0  0  0
    7.4375   -9.3917    0.0000 N   0  0  0  0  0  0  0  0  0  0  0  0
    1.9125   -5.5167    0.0000 N   0  0  0  0  0  0  0  0  0  0  0  0
    3.3375   -5.5125    0.0000 C   0  0  0  0  0  0  0  0  0  0  0  0
    9.0500   -7.9917    0.0000 C   0  0  0  0  0  0  0  0  0  0  0  0
    2.6250   -5.9250    0.0000 C   0  0  0  0  0  0  0  0  0  0  0  0
    9.0542   -7.1667    0.0000 C   0  0  0  0  0  0  0  0  0  0  0  0
    1.9125   -4.6917    0.0000 C   0  0  0  0  0  0  0  0  0  0  0  0
    6.2000   -5.5167    0.0000 C   0  0  0  0  0  0  0  0  0  0  0  0
    4.7667   -4.6792    0.0000 O   0  0  0  0  0  0  0  0  0  0  0  0
    8.3375   -6.7542    0.0000 C   0  0  0  0  0  0  0  0  0  0  0  0
    1.1917   -5.9292    0.0000 C   0  0  0  0  0  0  0  0  0  0  0  0
    3.3375   -7.1667    0.0000 C   0  0  0  0  0  0  0  0  0  0  0  0
    2.6250   -6.7542    0.0000 C   0  0  0  0  0  0  0  0  0  0  0  0
    1.1917   -4.2792    0.0000 O   0  0  0  0  0  0  0  0  0  0  0  0
    8.3375   -5.9292    0.0000 C   0  0  0  0  0  0  0  0  0  0  0  0
    7.6167   -7.1667    0.0000 C   0  0  0  0  0  0  0  0  0  0  0  0
    6.9125   -5.9292    0.0000 C   0  0  0  0  0  0  0  0  0  0  0  0
    6.1917   -7.1667    0.0000 C   0  0  0  0  0  0  0  0  0  0  0  0
    0.4792   -5.5167    0.0000 C   0  0  0  0  0  0  0  0  0  0  0  0
    7.6250   -5.5167    0.0000 C   0  0  0  0  0  0  0  0  0  0  0  0
    6.9042   -6.7542    0.0000 C   0  0  0  0  0  0  0  0  0  0  0  0
    9.7625   -8.4042    0.0000 C   0  0  0  0  0  0  0  0  0  0  0  0
    9.7625   -6.7542    0.0000 C   0  0  0  0  0  0  0  0  0  0  0  0
    2.6250   -4.2750    0.0000 C   0  0  0  0  0  0  0  0  0  0  0  0
    0.4875   -4.6875    0.0000 C   0  0  0  0  0  0  0  0  0  0  0  0
   -0.2250   -5.9292    0.0000 C   0  0  0  0  0  0  0  0  0  0  0  0
    6.1917   -7.9917    0.0000 C   0  0  0  0  0  0  0  0  0  0  0  0
    2.6250   -3.4500    0.0000 C   0  0  0  0  0  0  0  0  0  0  0  0
    3.3375   -3.0375    0.0000 C   0  0  0  0  0  0  0  0  0  0  0  0
   10.4792   -7.9917    0.0000 C   0  0  0  0  0  0  0  0  0  0  0  0
   10.4750   -7.1667    0.0000 C   0  0  0  0  0  0  0  0  0  0  0  0
    5.4792   -8.4042    0.0000 C   0  0  0  0  0  0  0  0  0  0  0  0
    3.3375   -2.2125    0.0000 C   0  0  0  0  0  0  0  0  0  0  0  0
   -0.2333   -4.2792    0.0000 C   0  0  0  0  0  0  0  0  0  0  0  0
   -0.9458   -5.5167    0.0000 C   0  0  0  0  0  0  0  0  0  0  0  0
   -0.9458   -4.6917    0.0000 C   0  0  0  0  0  0  0  0  0  0  0  0
  2  1  1  0
  3  2  1  0
  4  1  1  0
  5  4  2  0
  6 14  1  0
  7  6  1  0
  8  7  1  0
  9  6  2  0
 10  5  1  0
 11  9  1  0
 12 15  1  0
 13  3  2  0
 14 16  1  0
 15 13  1  0
 16 20  1  0
 17 12  1  0
 18  1  1  0
 19  2  2  0
 20 26  2  0
 21 12  1  0
 22 10  2  0
 23 22  1  0
 24 17  2  0
 25 30  2  0
 26 31  1  0
 27 18  1  0
 28  4  1  0
 29 21  1  0
 30 27  1  0
 31 27  2  0
 32 14  2  0
 33 16  2  0
 34 17  1  0
 35 29  2  0
 36 29  1  0
 37 28  1  0
 38 34  1  0
 39 38  1  0
 40 41  2  0
 41 33  1  0
 42 37  1  0
 43 39  1  0
 44 35  1  0
 45 36  2  0
 46 45  1  0
  3 10  1  0
 25 20  1  0
 15 23  2  0
 32 40  1  0
  8 11  2  0
 44 46  2  0
M  END
>  <From>  (1) 
www.bindingDB.org

>  <BindingDB Reactant_set_id>  (1) 
50061170

>  <Ligand InChI>  (1) 
InChI=1S/C37H37N7O2/c1-3-5-16-35(45)43(24-26-12-7-6-8-13-26)29-21-22-33-32(23-29)37(46)44(34(38-33)11-4-2)25-27-17-19-28(20-18-27)30-14-9-10-15-31(30)36-39-41-42-40-36/h6-10,12-15,17-23H,3-5,11,16,24-25H2,1-2H3,(H,39,40,41,42)

>  <Ligand InChI Key>  (1) 
KLFGDJAOCBEILB-UHFFFAOYSA-N

>  <BindingDB MonomerID>  (1) 
50041966

>  <BindingDB Ligand Name>  (1) 
CHEMBL324629::Pentanoic acid benzyl-{4-oxo-2-propyl-3-[2'-(2H-tetrazol-5-yl)-biphenyl-4-ylmethyl]-3,4-dihydro-quinazolin-6-yl}-amide

>  <Target Name>  (1) 
Type-1 angiotensin II receptor

>  <Target Source Organism According to Curator or DataSource>  (1) 
Oryctolagus cuniculus

>  <Ki (nM)>  (1) 


>  <IC50 (nM)>  (1) 
 2.4

>  <Kd (nM)>  (1) 


>  <EC50 (nM)>  (1) 


>  <kon (M-1-s-1)>  (1) 


>  <koff (s-1)>  (1) 


>  <pH>  (1) 


>  <Temp C>  (1) 


>  <Curation/DataSource>  (1) 
ChEMBL

>  <Article DOI>  (1) 
10.1021/jm00073a024

>  <BindingDB Entry DOI>  (1) 
10.7270/Q2QR4W6P

>  <PMID>  (1) 
8230109

>  <PubChem AID>  (1) 


>  <Patent Number>  (1) 


>  <Authors>  (1) 
de Laszlo, SE; Quagliato, CS; Greenlee, WJ; Patchett, AA; Chang, RS; Lotti, VJ; Chen, TB; Scheck, SA; Faust, KA; Kivlighn, SS

>  <Institution>  (1) 
Merck Research Laboratories

>  <Link to Ligand in BindingDB>  (1) 
http://www.bindingdb.org/bind/chemsearch/marvin/MolStructure.jsp?monomerid=50041966

>  <Link to Ligand-Target Pair in BindingDB>  (1) 
http://www.bindingdb.org/jsp/dbsearch/PrimarySearch_ki.jsp?energyterm=kJ/mole&tag=r21&monomerid=50041966&enzyme=Type-1+angiotensin+II+receptor&column=ki&startPg=0&Increment=50&submit=Search

>  <Ligand HET ID in PDB>  (1) 


>  <PDB ID(s) for Ligand-Target Complex>  (1) 


>  <PubChem CID of Ligand>  (1) 
44338708

>  <PubChem SID of Ligand>  (1) 
103973645

>  <ChEBI ID of Ligand>  (1) 


>  <ChEMBL ID of Ligand>  (1) 
CHEMBL324629

>  <DrugBank ID of Ligand>  (1) 


>  <IUPHAR_GRAC ID of Ligand>  (1) 


>  <KEGG ID of Ligand>  (1) 


>  <ZINC ID of Ligand>  (1) 
ZINC26946176

>  <Number of Protein Chains in Target (bigger than 1 implies a multichain complex)>  (1) 
1

>  <BindingDB Target Chain Sequence>  (1) 
MMLNSSTEDGIKRIQDDCPKAGRHNYIFVMIPTLYSIIFVVGIFGNSLAVIVIYFYMKLKTVASVFLLNLALADLCFLLTLPLWAVYTAMEYRWPFGNYLCKIASASVSFNLYASVFLLTCLSIDRYLAIVHPMKSRLRRTMLVAKVTCIIIWLLAGLASLPAIIHRNVFFIENTNITVCAFHYESQNSTLPIGLGLTKNILGFLFPFLIILTSYTLIWKALKKAYEIQKNKPRNDDIFKIIMAIVLFFFFSWVPHQIFTFLDVLIQLGVIHDCRIADIVDTAMPITICIAYFNNCLNPLFYGFLGKKFKKYFLQLLKYIPPKAKSHSNLSTKMSTLSYRPSDNVSSSSKKPVPCFEVE

>  <PDB ID(s) of Target Chain>  (1) 
6DO1,6OS0,6OS1,6OS2

>  <UniProt (SwissProt) Recommended Name of Target Chain>  (1) 
Type-1 angiotensin II receptor

>  <UniProt (SwissProt) Entry Name of Target Chain>  (1) 
AGTR1_RABIT

>  <UniProt (SwissProt) Primary ID of Target Chain>  (1) 
P34976

>  <UniProt (SwissProt) Secondary ID(s) of Target Chain>  (1) 


>  <UniProt (SwissProt) Alternative ID(s) of Target Chain>  (1) 


>  <UniProt (TrEMBL) Submitted Name of Target Chain>  (1) 


>  <UniProt (TrEMBL) Entry Name of Target Chain>  (1) 


>  <UniProt (TrEMBL) Primary ID of Target Chain>  (1) 


>  <UniProt (TrEMBL) Secondary ID(s) of Target Chain>  (1) 


>  <UniProt (TrEMBL) Alternative ID(s) of Target Chain>  (1) 


$$$$
