
     RDKit          2D

 38 42  0  0  0  0  0  0  0  0999 V2000
    0.5558   -6.2962    0.0000 N   0  0  0  0  0  0  0  0  0  0  0  0
    0.8479   -7.6025    0.0000 N   0  0  0  0  0  0  0  0  0  0  0  0
    1.1745   -6.8405    0.0000 C   0  0  0  0  0  0  0  0  0  0  0  0
   -0.1547   -6.7201    0.0000 N   0  0  0  0  0  0  0  0  0  0  0  0
    0.0230   -7.5279    0.0000 C   0  0  0  0  0  0  0  0  0  0  0  0
    4.5432   -6.8290    0.0000 C   0  0  0  0  0  0  0  0  0  0  0  0
    0.6245   -5.4713    0.0000 C   0  0  0  0  0  0  0  0  0  0  0  0
   -0.0458   -5.0072    0.0000 C   0  0  0  0  0  0  0  0  0  0  0  0
    3.7182   -6.7603    0.0000 N   0  0  0  0  0  0  0  0  0  0  0  0
    3.5291   -5.9639    0.0000 N   0  0  0  0  0  0  0  0  0  0  0  0
    4.8525   -6.0728    0.0000 N   0  0  0  0  0  0  0  0  0  0  0  0
    4.2338   -5.5342    0.0000 N   0  0  0  0  0  0  0  0  0  0  0  0
    4.9728   -7.5337    0.0000 C   0  0  0  0  0  0  0  0  0  0  0  0
   -0.8020   -5.3510    0.0000 C   0  0  0  0  0  0  0  0  0  0  0  0
    4.5775   -8.2556    0.0000 C   0  0  0  0  0  0  0  0  0  0  0  0
    1.2776   -8.3071    0.0000 C   0  0  0  0  0  0  0  0  0  0  0  0
    1.9823   -6.6572    0.0000 O   0  0  0  0  0  0  0  0  0  0  0  0
    3.7526   -8.2728    0.0000 C   0  0  0  0  0  0  0  0  0  0  0  0
   -0.8708   -6.1759    0.0000 O   0  0  0  0  0  0  0  0  0  0  0  0
    3.3573   -8.9946    0.0000 C   0  0  0  0  0  0  0  0  0  0  0  0
    3.3343   -7.5681    0.0000 C   0  0  0  0  0  0  0  0  0  0  0  0
    2.1026   -8.3014    0.0000 C   0  0  0  0  0  0  0  0  0  0  0  0
   -1.4723   -4.8811    0.0000 O   0  0  0  0  0  0  0  0  0  0  0  0
   -0.5156   -8.1467    0.0000 C   0  0  0  0  0  0  0  0  0  0  0  0
    0.0230   -4.1822    0.0000 C   0  0  0  0  0  0  0  0  0  0  0  0
    2.5265   -9.0060    0.0000 C   0  0  0  0  0  0  0  0  0  0  0  0
    2.4979   -7.5795    0.0000 C   0  0  0  0  0  0  0  0  0  0  0  0
    1.3807   -5.1275    0.0000 C   0  0  0  0  0  0  0  0  0  0  0  0
    5.7978   -7.5165    0.0000 C   0  0  0  0  0  0  0  0  0  0  0  0
    5.0014   -8.9602    0.0000 C   0  0  0  0  0  0  0  0  0  0  0  0
   -2.2285   -5.2306    0.0000 C   0  0  0  0  0  0  0  0  0  0  0  0
   -1.3234   -7.9806    0.0000 C   0  0  0  0  0  0  0  0  0  0  0  0
   -1.8676   -8.5993    0.0000 C   0  0  0  0  0  0  0  0  0  0  0  0
    0.7792   -3.8385    0.0000 C   0  0  0  0  0  0  0  0  0  0  0  0
    1.4495   -4.3140    0.0000 C   0  0  0  0  0  0  0  0  0  0  0  0
    6.2275   -8.2212    0.0000 C   0  0  0  0  0  0  0  0  0  0  0  0
    5.8264   -8.9431    0.0000 C   0  0  0  0  0  0  0  0  0  0  0  0
   -2.6754   -8.4446    0.0000 C   0  0  0  0  0  0  0  0  0  0  0  0
  2  3  1  0
  3  1  1  0
  4  1  1  0
  5  4  2  0
  6 13  1  0
  7  1  1  0
  8  7  2  0
  9  6  1  0
 10  9  1  0
 11  6  2  0
 12 11  1  0
 13 15  1  0
 14  8  1  0
 15 18  1  0
 16  2  1  0
 17  3  2  0
 18 21  2  0
 19 14  2  0
 20 26  2  0
 21 27  1  0
 22 16  1  0
 23 14  1  0
 24  5  1  0
 25  8  1  0
 26 22  1  0
 27 22  2  0
 28  7  1  0
 29 13  2  0
 30 15  2  0
 31 23  1  0
 32 24  1  0
 33 32  1  0
 34 35  1  0
 35 28  2  0
 36 37  2  0
 37 30  1  0
 38 33  1  0
  2  5  1  0
 34 25  2  0
 18 20  1  0
 29 36  1  0
 10 12  2  0
M  END
>  <From>  (1) 
www.bindingDB.org

>  <BindingDB Reactant_set_id>  (1) 
51185940

>  <Ligand InChI>  (1) 
InChI=1S/C28H27N7O3/c1-3-4-13-25-31-35(24-12-8-7-11-23(24)27(36)38-2)28(37)34(25)18-19-14-16-20(17-15-19)21-9-5-6-10-22(21)26-29-32-33-30-26/h5-12,14-17H,3-4,13,18H2,1-2H3,(H,29,30,32,33)

>  <Ligand InChI Key>  (1) 
WRSDIEZAVLTZHY-UHFFFAOYSA-N

>  <BindingDB MonomerID>  (1) 
50044507

>  <BindingDB Ligand Name>  (1) 
2-{3-Butyl-5-oxo-4-[2'-(2H-tetrazol-5-yl)-biphenyl-4-ylmethyl]-4,5-dihydro-[1,2,4]triazol-1-yl}-benzoic acid methyl ester::CHEMBL314042

>  <Target Name>  (1) 
Type-1 angiotensin II receptor

>  <Target Source Organism According to Curator or DataSource>  (1) 
Oryctolagus cuniculus

>  <Ki (nM)>  (1) 


>  <IC50 (nM)>  (1) 
 5.6

>  <Kd (nM)>  (1) 


>  <EC50 (nM)>  (1) 


>  <kon (M-1-s-1)>  (1) 


>  <koff (s-1)>  (1) 


>  <pH>  (1) 


>  <Temp C>  (1) 


>  <Curation/DataSource>  (1) 
ChEMBL

>  <Article DOI>  (1) 
10.1007/s00044-009-9197-5

>  <BindingDB Entry DOI>  (1) 
10.7270/Q2H41V9D

>  <PMID>  (1) 


>  <PubChem AID>  (1) 


>  <Patent Number>  (1) 


>  <Authors>  (1) 
n/a

>  <Institution>  (1) 
n/a

>  <Link to Ligand in BindingDB>  (1) 
http://www.bindingdb.org/bind/chemsearch/marvin/MolStructure.jsp?monomerid=50044507

>  <Link to Ligand-Target Pair in BindingDB>  (1) 
http://www.bindingdb.org/jsp/dbsearch/PrimarySearch_ki.jsp?energyterm=kJ/mole&tag=r21&monomerid=50044507&enzyme=Type-1+angiotensin+II+receptor&column=ki&startPg=0&Increment=50&submit=Search

>  <Ligand HET ID in PDB>  (1) 


>  <PDB ID(s) for Ligand-Target Complex>  (1) 


>  <PubChem CID of Ligand>  (1) 
14956758

>  <PubChem SID of Ligand>  (1) 
103975745

>  <ChEBI ID of Ligand>  (1) 


>  <ChEMBL ID of Ligand>  (1) 
CHEMBL314042

>  <DrugBank ID of Ligand>  (1) 


>  <IUPHAR_GRAC ID of Ligand>  (1) 


>  <KEGG ID of Ligand>  (1) 


>  <ZINC ID of Ligand>  (1) 
ZINC13832649

>  <Number of Protein Chains in Target (bigger than 1 implies a multichain complex)>  (1) 
1

>  <BindingDB Target Chain Sequence>  (1) 
MMLNSSTEDGIKRIQDDCPKAGRHNYIFVMIPTLYSIIFVVGIFGNSLAVIVIYFYMKLKTVASVFLLNLALADLCFLLTLPLWAVYTAMEYRWPFGNYLCKIASASVSFNLYASVFLLTCLSIDRYLAIVHPMKSRLRRTMLVAKVTCIIIWLLAGLASLPAIIHRNVFFIENTNITVCAFHYESQNSTLPIGLGLTKNILGFLFPFLIILTSYTLIWKALKKAYEIQKNKPRNDDIFKIIMAIVLFFFFSWVPHQIFTFLDVLIQLGVIHDCRIADIVDTAMPITICIAYFNNCLNPLFYGFLGKKFKKYFLQLLKYIPPKAKSHSNLSTKMSTLSYRPSDNVSSSSKKPVPCFEVE

>  <PDB ID(s) of Target Chain>  (1) 
6DO1,6OS0,6OS1,6OS2

>  <UniProt (SwissProt) Recommended Name of Target Chain>  (1) 
Type-1 angiotensin II receptor

>  <UniProt (SwissProt) Entry Name of Target Chain>  (1) 
AGTR1_RABIT

>  <UniProt (SwissProt) Primary ID of Target Chain>  (1) 
P34976

>  <UniProt (SwissProt) Secondary ID(s) of Target Chain>  (1) 


>  <UniProt (SwissProt) Alternative ID(s) of Target Chain>  (1) 


>  <UniProt (TrEMBL) Submitted Name of Target Chain>  (1) 


>  <UniProt (TrEMBL) Entry Name of Target Chain>  (1) 


>  <UniProt (TrEMBL) Primary ID of Target Chain>  (1) 


>  <UniProt (TrEMBL) Secondary ID(s) of Target Chain>  (1) 


>  <UniProt (TrEMBL) Alternative ID(s) of Target Chain>  (1) 


$$$$
