
     RDKit          2D

 51 55  0  0  0  0  0  0  0  0999 V2000
    4.2443   -4.4827    0.0000 N   0  0  0  0  0  0  0  0  0  0  0  0
    4.2945   -5.8250    0.0000 N   0  0  0  0  0  0  0  0  0  0  0  0
    7.8823   -5.2103    0.0000 S   0  0  0  0  0  0  0  0  0  0  0  0
    4.7587   -5.1433    0.0000 C   0  0  0  0  0  0  0  0  0  0  0  0
    3.4666   -4.7795    0.0000 N   0  0  0  0  0  0  0  0  0  0  0  0
    3.5000   -5.5992    0.0000 C   0  0  0  0  0  0  0  0  0  0  0  0
    7.4683   -4.4827    0.0000 N   0  0  0  0  0  0  0  0  0  0  0  0
    4.4701   -3.6924    0.0000 C   0  0  0  0  0  0  0  0  0  0  0  0
    7.8948   -3.7760    0.0000 C   0  0  0  0  0  0  0  0  0  0  0  0
    8.2837   -5.9379    0.0000 C   0  0  0  0  0  0  0  0  0  0  0  0
    8.6935   -3.5544    0.0000 C   0  0  0  0  0  0  0  0  0  0  0  0
    6.4020   -2.6762    0.0000 C   0  0  0  0  0  0  0  0  0  0  0  0
    5.2855   -3.5669    0.0000 C   0  0  0  0  0  0  0  0  0  0  0  0
    5.5866   -2.8017    0.0000 C   0  0  0  0  0  0  0  0  0  0  0  0
    7.8698   -6.6487    0.0000 C   0  0  0  0  0  0  0  0  0  0  0  0
    4.5830   -6.6027    0.0000 C   0  0  0  0  0  0  0  0  0  0  0  0
    8.5973   -4.8046    0.0000 O   0  0  0  0  0  0  0  0  0  0  0  0
    7.1547   -5.6117    0.0000 O   0  0  0  0  0  0  0  0  0  0  0  0
    5.5866   -5.1099    0.0000 O   0  0  0  0  0  0  0  0  0  0  0  0
    3.9558   -3.0526    0.0000 C   0  0  0  0  0  0  0  0  0  0  0  0
    6.7031   -1.9068    0.0000 N   0  0  0  0  0  0  0  0  0  0  0  0
    7.0501   -6.6362    0.0000 C   0  0  0  0  0  0  0  0  0  0  0  0
    8.8984   -2.7598    0.0000 C   0  0  0  0  0  0  0  0  0  0  0  0
    7.4892   -3.0526    0.0000 O   0  0  0  0  0  0  0  0  0  0  0  0
    6.9247   -3.3244    0.0000 O   0  0  0  0  0  0  0  0  0  0  0  0
    5.0723   -2.1577    0.0000 C   0  0  0  0  0  0  0  0  0  0  0  0
    4.2527   -2.2831    0.0000 C   0  0  0  0  0  0  0  0  0  0  0  0
    6.6404   -5.9128    0.0000 C   0  0  0  0  0  0  0  0  0  0  0  0
    6.6278   -7.3429    0.0000 C   0  0  0  0  0  0  0  0  0  0  0  0
    5.4068   -6.6153    0.0000 C   0  0  0  0  0  0  0  0  0  0  0  0
    3.1362   -3.1780    0.0000 Cl  0  0  0  0  0  0  0  0  0  0  0  0
    8.3088   -2.1702    0.0000 Cl  0  0  0  0  0  0  0  0  0  0  0  0
    2.8519   -6.1135    0.0000 C   0  0  0  0  0  0  0  0  0  0  0  0
    5.8207   -5.9128    0.0000 C   0  0  0  0  0  0  0  0  0  0  0  0
    5.8082   -7.3303    0.0000 C   0  0  0  0  0  0  0  0  0  0  0  0
    9.2748   -4.1398    0.0000 C   0  0  0  0  0  0  0  0  0  0  0  0
    9.1117   -5.9462    0.0000 C   0  0  0  0  0  0  0  0  0  0  0  0
    8.2712   -7.3680    0.0000 C   0  0  0  0  0  0  0  0  0  0  0  0
    6.1888   -1.2587    0.0000 C   0  0  0  0  0  0  0  0  0  0  0  0
    7.5268   -1.7856    0.0000 C   0  0  0  0  0  0  0  0  0  0  0  0
    9.6887   -2.5382    0.0000 C   0  0  0  0  0  0  0  0  0  0  0  0
    2.0741   -5.8082    0.0000 C   0  0  0  0  0  0  0  0  0  0  0  0
    6.4020   -0.4558    0.0000 C   0  0  0  0  0  0  0  0  0  0  0  0
    1.4301   -6.3225    0.0000 C   0  0  0  0  0  0  0  0  0  0  0  0
    5.8124    0.1338    0.0000 C   0  0  0  0  0  0  0  0  0  0  0  0
   10.0734   -3.9182    0.0000 C   0  0  0  0  0  0  0  0  0  0  0  0
    9.0991   -7.3763    0.0000 C   0  0  0  0  0  0  0  0  0  0  0  0
    9.5214   -6.6655    0.0000 C   0  0  0  0  0  0  0  0  0  0  0  0
    0.6649   -6.0131    0.0000 C   0  0  0  0  0  0  0  0  0  0  0  0
    6.0257    0.9283    0.0000 C   0  0  0  0  0  0  0  0  0  0  0  0
   10.2783   -3.1153    0.0000 C   0  0  0  0  0  0  0  0  0  0  0  0
  2  4  1  0
  3 10  1  0
  4  1  1  0
  5  1  1  0
  6  5  2  0
  7  3  1  0
  8  1  1  0
  9  7  1  0
 10 15  1  0
 11  9  1  0
 12 14  1  0
 13  8  2  0
 14 13  1  0
 15 22  1  0
 16  2  1  0
 17  3  2  0
 18  3  2  0
 19  4  2  0
 20  8  1  0
 21 12  1  0
 22 29  2  0
 23 11  2  0
 24  9  2  0
 25 12  2  0
 26 27  1  0
 27 20  2  0
 28 34  2  0
 29 35  1  0
 30 16  1  0
 31 20  1  0
 32 23  1  0
 33  6  1  0
 34 30  1  0
 35 30  2  0
 36 11  1  0
 37 10  2  0
 38 15  2  0
 39 21  1  0
 40 21  1  0
 41 23  1  0
 42 33  1  0
 43 39  1  0
 44 42  1  0
 45 43  1  0
 46 36  2  0
 47 38  1  0
 48 47  2  0
 49 44  1  0
 50 45  1  0
 51 46  1  0
  6  2  1  0
 14 26  2  0
 28 22  1  0
 48 37  1  0
 41 51  2  0
M  END
>  <From>  (1) 
www.bindingDB.org

>  <BindingDB Reactant_set_id>  (1) 
50037824

>  <Ligand InChI>  (1) 
InChI=1S/C38H39Cl2N5O5S/c1-4-6-16-35-41-45(33-24-28(21-22-32(33)40)37(47)43(3)23-7-5-2)38(48)44(35)25-26-17-19-27(20-18-26)29-12-9-11-15-34(29)51(49,50)42-36(46)30-13-8-10-14-31(30)39/h8-15,17-22,24H,4-7,16,23,25H2,1-3H3,(H,42,46)

>  <Ligand InChI Key>  (1) 
KYDQONSQROWLMJ-UHFFFAOYSA-N

>  <BindingDB MonomerID>  (1) 
50035448

>  <BindingDB Ligand Name>  (1) 
CHEMBL344811::N-Butyl-3-{3-butyl-4-[2'-(2-chloro-benzoylsulfamoyl)-biphenyl-4-ylmethyl]-5-oxo-4,5-dihydro-[1,2,4]triazol-1-yl}-4-chloro-N-methyl-benzamide

>  <Target Name>  (1) 
Type-1 angiotensin II receptor

>  <Target Source Organism According to Curator or DataSource>  (1) 
Oryctolagus cuniculus

>  <Ki (nM)>  (1) 


>  <IC50 (nM)>  (1) 
 0.630000

>  <Kd (nM)>  (1) 


>  <EC50 (nM)>  (1) 


>  <kon (M-1-s-1)>  (1) 


>  <koff (s-1)>  (1) 


>  <pH>  (1) 


>  <Temp C>  (1) 


>  <Curation/DataSource>  (1) 
ChEMBL

>  <Article DOI>  (1) 
10.1021/jm00052a006

>  <BindingDB Entry DOI>  (1) 
10.7270/Q2WD3ZK5

>  <PMID>  (1) 
7799397

>  <PubChem AID>  (1) 


>  <Patent Number>  (1) 


>  <Authors>  (1) 
Chang, LL; Ashton, WT; Flanagan, KL; Chen, TB; O'Malley, SS; Zingaro, GJ; Siegl, PK; Kivlighn, SD; Lotti, VJ; Chang, RS

>  <Institution>  (1) 
Merck Research Laboratories

>  <Link to Ligand in BindingDB>  (1) 
http://www.bindingdb.org/bind/chemsearch/marvin/MolStructure.jsp?monomerid=50035448

>  <Link to Ligand-Target Pair in BindingDB>  (1) 
http://www.bindingdb.org/jsp/dbsearch/PrimarySearch_ki.jsp?energyterm=kJ/mole&tag=r21&monomerid=50035448&enzyme=Type-1+angiotensin+II+receptor&column=ki&startPg=0&Increment=50&submit=Search

>  <Ligand HET ID in PDB>  (1) 


>  <PDB ID(s) for Ligand-Target Complex>  (1) 


>  <PubChem CID of Ligand>  (1) 
10485202

>  <PubChem SID of Ligand>  (1) 
103943467

>  <ChEBI ID of Ligand>  (1) 


>  <ChEMBL ID of Ligand>  (1) 
CHEMBL344811

>  <DrugBank ID of Ligand>  (1) 


>  <IUPHAR_GRAC ID of Ligand>  (1) 


>  <KEGG ID of Ligand>  (1) 


>  <ZINC ID of Ligand>  (1) 
ZINC95612115

>  <Number of Protein Chains in Target (bigger than 1 implies a multichain complex)>  (1) 
1

>  <BindingDB Target Chain Sequence>  (1) 
MMLNSSTEDGIKRIQDDCPKAGRHNYIFVMIPTLYSIIFVVGIFGNSLAVIVIYFYMKLKTVASVFLLNLALADLCFLLTLPLWAVYTAMEYRWPFGNYLCKIASASVSFNLYASVFLLTCLSIDRYLAIVHPMKSRLRRTMLVAKVTCIIIWLLAGLASLPAIIHRNVFFIENTNITVCAFHYESQNSTLPIGLGLTKNILGFLFPFLIILTSYTLIWKALKKAYEIQKNKPRNDDIFKIIMAIVLFFFFSWVPHQIFTFLDVLIQLGVIHDCRIADIVDTAMPITICIAYFNNCLNPLFYGFLGKKFKKYFLQLLKYIPPKAKSHSNLSTKMSTLSYRPSDNVSSSSKKPVPCFEVE

>  <PDB ID(s) of Target Chain>  (1) 
6DO1,6OS0,6OS1,6OS2

>  <UniProt (SwissProt) Recommended Name of Target Chain>  (1) 
Type-1 angiotensin II receptor

>  <UniProt (SwissProt) Entry Name of Target Chain>  (1) 
AGTR1_RABIT

>  <UniProt (SwissProt) Primary ID of Target Chain>  (1) 
P34976

>  <UniProt (SwissProt) Secondary ID(s) of Target Chain>  (1) 


>  <UniProt (SwissProt) Alternative ID(s) of Target Chain>  (1) 


>  <UniProt (TrEMBL) Submitted Name of Target Chain>  (1) 


>  <UniProt (TrEMBL) Entry Name of Target Chain>  (1) 


>  <UniProt (TrEMBL) Primary ID of Target Chain>  (1) 


>  <UniProt (TrEMBL) Secondary ID(s) of Target Chain>  (1) 


>  <UniProt (TrEMBL) Alternative ID(s) of Target Chain>  (1) 


$$$$
