
     RDKit          2D

 46 50  0  0  0  0  0  0  0  0999 V2000
    2.5153    1.9364    0.0000 N   0  0  0  0  0  0  0  0  0  0  0  0
    2.0530    0.6871    0.0000 N   0  0  0  0  0  0  0  0  0  0  0  0
    2.7401    1.1451    0.0000 C   0  0  0  0  0  0  0  0  0  0  0  0
    5.5468   -0.6996    0.0000 S   0  0  0  0  0  0  0  0  0  0  0  0
    1.6907    1.9697    0.0000 N   0  0  0  0  0  0  0  0  0  0  0  0
    1.4034    1.1993    0.0000 C   0  0  0  0  0  0  0  0  0  0  0  0
    5.5385    0.1249    0.0000 N   0  0  0  0  0  0  0  0  0  0  0  0
    2.7234    3.3564    0.0000 C   0  0  0  0  0  0  0  0  0  0  0  0
    3.0275    2.5860    0.0000 C   0  0  0  0  0  0  0  0  0  0  0  0
    1.9031    3.4563    0.0000 C   0  0  0  0  0  0  0  0  0  0  0  0
    5.5135   -1.5241    0.0000 C   0  0  0  0  0  0  0  0  0  0  0  0
    6.2506    0.5455    0.0000 C   0  0  0  0  0  0  0  0  0  0  0  0
    4.7890   -1.9031    0.0000 C   0  0  0  0  0  0  0  0  0  0  0  0
    2.0155   -0.1374    0.0000 C   0  0  0  0  0  0  0  0  0  0  0  0
    6.3713   -0.6996    0.0000 O   0  0  0  0  0  0  0  0  0  0  0  0
    4.7223   -0.6913    0.0000 O   0  0  0  0  0  0  0  0  0  0  0  0
    3.5105    0.8578    0.0000 O   0  0  0  0  0  0  0  0  0  0  0  0
    4.0976   -1.4617    0.0000 C   0  0  0  0  0  0  0  0  0  0  0  0
    6.2464    1.3700    0.0000 O   0  0  0  0  0  0  0  0  0  0  0  0
    1.1618    3.5688    0.0000 F   0  0  0  0  0  0  0  0  0  0  0  0
    1.4534    4.1893    0.0000 F   0  0  0  0  0  0  0  0  0  0  0  0
    1.2660    2.8734    0.0000 F   0  0  0  0  0  0  0  0  0  0  0  0
    6.9710    0.1374    0.0000 C   0  0  0  0  0  0  0  0  0  0  0  0
    4.1268   -0.6371    0.0000 C   0  0  0  0  0  0  0  0  0  0  0  0
    3.3648   -1.8406    0.0000 C   0  0  0  0  0  0  0  0  0  0  0  0
    2.7109   -0.5789    0.0000 C   0  0  0  0  0  0  0  0  0  0  0  0
    0.6121    0.9827    0.0000 C   0  0  0  0  0  0  0  0  0  0  0  0
    3.2273    3.9935    0.0000 C   0  0  0  0  0  0  0  0  0  0  0  0
    2.6652   -1.4034    0.0000 C   0  0  0  0  0  0  0  0  0  0  0  0
    3.4355   -0.1916    0.0000 C   0  0  0  0  0  0  0  0  0  0  0  0
    3.8395    2.4611    0.0000 C   0  0  0  0  0  0  0  0  0  0  0  0
    7.6748    0.5580    0.0000 C   0  0  0  0  0  0  0  0  0  0  0  0
    6.2131   -1.9614    0.0000 C   0  0  0  0  0  0  0  0  0  0  0  0
    4.7515   -2.7276    0.0000 C   0  0  0  0  0  0  0  0  0  0  0  0
    8.3952    0.1499    0.0000 C   0  0  0  0  0  0  0  0  0  0  0  0
    7.6706    1.3825    0.0000 C   0  0  0  0  0  0  0  0  0  0  0  0
    0.0167    1.5574    0.0000 C   0  0  0  0  0  0  0  0  0  0  0  0
   -0.7704    1.3367    0.0000 C   0  0  0  0  0  0  0  0  0  0  0  0
    4.0477    3.8811    0.0000 C   0  0  0  0  0  0  0  0  0  0  0  0
    4.3517    3.1065    0.0000 C   0  0  0  0  0  0  0  0  0  0  0  0
    5.4469   -3.1732    0.0000 C   0  0  0  0  0  0  0  0  0  0  0  0
    6.1757   -2.7901    0.0000 C   0  0  0  0  0  0  0  0  0  0  0  0
   -1.3617    1.9197    0.0000 C   0  0  0  0  0  0  0  0  0  0  0  0
    8.3744    1.7990    0.0000 C   0  0  0  0  0  0  0  0  0  0  0  0
    9.1073    0.5705    0.0000 C   0  0  0  0  0  0  0  0  0  0  0  0
    9.0990    1.3950    0.0000 C   0  0  0  0  0  0  0  0  0  0  0  0
  2  3  1  0
  3  1  1  0
  4 11  1  0
  5  1  1  0
  6  5  2  0
  7  4  1  0
  8  9  2  0
  9  1  1  0
 10  8  1  0
 11 13  1  0
 12  7  1  0
 13 18  1  0
 14  2  1  0
 15  4  2  0
 16  4  2  0
 17  3  2  0
 18 24  2  0
 19 12  2  0
 20 10  1  0
 21 10  1  0
 22 10  1  0
 23 12  1  0
 24 30  1  0
 25 29  2  0
 26 14  1  0
 27  6  1  0
 28  8  1  0
 29 26  1  0
 30 26  2  0
 31  9  1  0
 32 23  1  0
 33 11  2  0
 34 13  2  0
 35 32  2  0
 36 32  1  0
 37 27  1  0
 38 37  1  0
 39 40  1  0
 40 31  2  0
 41 34  1  0
 42 41  2  0
 43 38  1  0
 44 36  2  0
 45 35  1  0
 46 44  1  0
  2  6  1  0
 39 28  2  0
 18 25  1  0
 33 42  1  0
 46 45  2  0
M  END
>  <From>  (1) 
www.bindingDB.org

>  <BindingDB Reactant_set_id>  (1) 
50036474

>  <Ligand InChI>  (1) 
InChI=1S/C34H31F3N4O4S/c1-2-3-17-31-38-41(29-15-9-8-14-28(29)34(35,36)37)33(43)40(31)23-25-18-20-26(21-19-25)27-13-7-10-16-30(27)46(44,45)39-32(42)22-24-11-5-4-6-12-24/h4-16,18-21H,2-3,17,22-23H2,1H3,(H,39,42)

>  <Ligand InChI Key>  (1) 
HVIDQSDPDWZVHO-UHFFFAOYSA-N

>  <BindingDB MonomerID>  (1) 
50039872

>  <BindingDB Ligand Name>  (1) 
4'-[3-Butyl-5-oxo-1-(2-trifluoromethyl-phenyl)-1,5-dihydro-[1,2,4]triazol-4-ylmethyl]-biphenyl-2-sulfonic acid phenylacetyl-amide::CHEMBL274710

>  <Target Name>  (1) 
Type-1 angiotensin II receptor

>  <Target Source Organism According to Curator or DataSource>  (1) 
Oryctolagus cuniculus

>  <Ki (nM)>  (1) 


>  <IC50 (nM)>  (1) 
 1.6

>  <Kd (nM)>  (1) 


>  <EC50 (nM)>  (1) 


>  <kon (M-1-s-1)>  (1) 


>  <koff (s-1)>  (1) 


>  <pH>  (1) 


>  <Temp C>  (1) 


>  <Curation/DataSource>  (1) 
ChEMBL

>  <Article DOI>  (1) 
10.1021/jm00043a020

>  <BindingDB Entry DOI>  (1) 
10.7270/Q2M907QM

>  <PMID>  (1) 
8064808

>  <PubChem AID>  (1) 


>  <Patent Number>  (1) 


>  <Authors>  (1) 
Ashton, WT; Chang, LL; Flanagan, KL; Hutchins, SM; Naylor, EM; Chakravarty, PK; Patchett, AA; Greenlee, WJ; Chen, TB; Faust, KA

>  <Institution>  (1) 
Merck Research Laboratories

>  <Link to Ligand in BindingDB>  (1) 
http://www.bindingdb.org/bind/chemsearch/marvin/MolStructure.jsp?monomerid=50039872

>  <Link to Ligand-Target Pair in BindingDB>  (1) 
http://www.bindingdb.org/jsp/dbsearch/PrimarySearch_ki.jsp?energyterm=kJ/mole&tag=r21&monomerid=50039872&enzyme=Type-1+angiotensin+II+receptor&column=ki&startPg=0&Increment=50&submit=Search

>  <Ligand HET ID in PDB>  (1) 


>  <PDB ID(s) for Ligand-Target Complex>  (1) 


>  <PubChem CID of Ligand>  (1) 
11764826

>  <PubChem SID of Ligand>  (1) 
103947067

>  <ChEBI ID of Ligand>  (1) 


>  <ChEMBL ID of Ligand>  (1) 
CHEMBL274710

>  <DrugBank ID of Ligand>  (1) 


>  <IUPHAR_GRAC ID of Ligand>  (1) 


>  <KEGG ID of Ligand>  (1) 


>  <ZINC ID of Ligand>  (1) 
ZINC28219361

>  <Number of Protein Chains in Target (bigger than 1 implies a multichain complex)>  (1) 
1

>  <BindingDB Target Chain Sequence>  (1) 
MMLNSSTEDGIKRIQDDCPKAGRHNYIFVMIPTLYSIIFVVGIFGNSLAVIVIYFYMKLKTVASVFLLNLALADLCFLLTLPLWAVYTAMEYRWPFGNYLCKIASASVSFNLYASVFLLTCLSIDRYLAIVHPMKSRLRRTMLVAKVTCIIIWLLAGLASLPAIIHRNVFFIENTNITVCAFHYESQNSTLPIGLGLTKNILGFLFPFLIILTSYTLIWKALKKAYEIQKNKPRNDDIFKIIMAIVLFFFFSWVPHQIFTFLDVLIQLGVIHDCRIADIVDTAMPITICIAYFNNCLNPLFYGFLGKKFKKYFLQLLKYIPPKAKSHSNLSTKMSTLSYRPSDNVSSSSKKPVPCFEVE

>  <PDB ID(s) of Target Chain>  (1) 
6DO1,6OS0,6OS1,6OS2

>  <UniProt (SwissProt) Recommended Name of Target Chain>  (1) 
Type-1 angiotensin II receptor

>  <UniProt (SwissProt) Entry Name of Target Chain>  (1) 
AGTR1_RABIT

>  <UniProt (SwissProt) Primary ID of Target Chain>  (1) 
P34976

>  <UniProt (SwissProt) Secondary ID(s) of Target Chain>  (1) 


>  <UniProt (SwissProt) Alternative ID(s) of Target Chain>  (1) 


>  <UniProt (TrEMBL) Submitted Name of Target Chain>  (1) 


>  <UniProt (TrEMBL) Entry Name of Target Chain>  (1) 


>  <UniProt (TrEMBL) Primary ID of Target Chain>  (1) 


>  <UniProt (TrEMBL) Secondary ID(s) of Target Chain>  (1) 


>  <UniProt (TrEMBL) Alternative ID(s) of Target Chain>  (1) 


$$$$
