 
     RDKit          2D

 24 26  0  0  0  0  0  0  0  0999 V2000
   -2.5880    1.1370    0.0000 C   0  0  0  0  0  0  0  0  0  0  0  0
   -2.6000    0.3121    0.0000 C   0  0  0  0  0  0  0  0  0  0  0  0
   -1.8917   -0.1107    0.0000 C   0  0  0  0  0  0  0  0  0  0  0  0
   -1.1713    0.2913    0.0000 C   0  0  0  0  0  0  0  0  0  0  0  0
   -0.3905    0.0248    0.0000 N   0  0  0  0  0  0  0  0  0  0  0  0
   -0.1469   -0.7632    0.0000 C   0  0  0  0  0  0  0  0  0  0  0  0
   -0.7079   -1.3682    0.0000 C   0  0  0  0  0  0  0  0  0  0  0  0
   -1.5123   -1.1850    0.0000 C   0  0  0  0  0  0  0  0  0  0  0  0
   -2.0732   -1.7899    0.0000 C   0  0  0  0  0  0  0  0  0  0  0  0
   -1.8297   -2.5782    0.0000 C   0  0  0  0  0  0  0  0  0  0  0  0
   -1.0254   -2.7615    0.0000 C   0  0  0  0  0  0  0  0  0  0  0  0
   -0.4644   -2.1564    0.0000 C   0  0  0  0  0  0  0  0  0  0  0  0
    0.6573   -0.9465    0.0000 O   0  0  0  0  0  0  0  0  0  0  0  0
    0.1040    0.6852    0.0000 C   0  0  0  0  0  0  0  0  0  0  0  0
    0.9289    0.6732    0.0000 C   0  0  0  0  0  0  0  0  0  0  0  0
   -0.3710    1.3596    0.0000 C   0  0  0  0  0  0  0  0  0  0  0  0
   -0.1047    2.1404    0.0000 C   0  0  0  0  0  0  0  0  0  0  0  0
    0.7046    2.3001    0.0000 O   0  0  0  0  0  0  0  0  0  0  0  0
   -0.6477    2.7615    0.0000 O   0  0  0  0  0  0  0  0  0  0  0  0
   -1.1592    1.1162    0.0000 C   0  0  0  0  0  0  0  0  0  0  0  0
   -1.8676    1.5390    0.0000 C   0  0  0  0  0  0  0  0  0  0  0  0
    1.3519    1.3817    0.0000 C   0  0  0  0  0  0  0  0  0  0  0  0
    2.1770    1.3697    0.0000 C   0  0  0  0  0  0  0  0  0  0  0  0
    2.6000    2.0783    0.0000 C   0  0  0  0  0  0  0  0  0  0  0  0
  1  2  2  0
  2  3  1  0
  3  4  2  0
  4  5  1  0
  5  6  1  0
  6  7  1  0
  7  8  2  0
  8  9  1  0
  9 10  2  0
 10 11  1  0
 12  7  1  0
 11 12  2  0
 13  6  2  0
 14  5  1  0
 14 15  1  0
 16 14  2  0
 16 17  1  0
 17 18  1  0
 17 19  2  0
 20 16  1  0
  4 20  1  0
 20 21  2  0
 21  1  1  0
 15 22  1  0
 22 23  1  0
 23 24  1  0
M  END
>  <From>  (1) 
www.bindingDB.org

>  <BindingDB Reactant_set_id>  (1) 
51523976

>  <Ligand InChI>  (1) 
InChI=1S/C20H19NO3/c1-2-3-12-17-18(20(23)24)15-11-7-8-13-16(15)21(17)19(22)14-9-5-4-6-10-14/h4-11,13H,2-3,12H2,1H3,(H,23,24)

>  <Ligand InChI Key>  (1) 
NKEQTBGRPLGHBY-UHFFFAOYSA-N

>  <BindingDB MonomerID>  (1) 
50613294

>  <BindingDB Ligand Name>  (1) 
CHEMBL5271903

>  <Target Name>  (1) 
Type-1 angiotensin II receptor

>  <Target Source Organism According to Curator or DataSource>  (1) 
Homo sapiens

>  <Ki (nM)>  (1) 


>  <IC50 (nM)>  (1) 
 22

>  <Kd (nM)>  (1) 


>  <EC50 (nM)>  (1) 


>  <kon (M-1-s-1)>  (1) 


>  <koff (s-1)>  (1) 


>  <pH>  (1) 


>  <Temp C>  (1) 


>  <Curation/DataSource>  (1) 
ChEMBL

>  <Article DOI>  (1) 


>  <BindingDB Entry DOI>  (1) 
10.7270/Q2C82FJ3

>  <PMID>  (1) 
37236375

>  <PubChem AID>  (1) 


>  <Patent Number>  (1) 


>  <Authors>  (1) 
n/a

>  <Institution>  (1) 
n/a

>  <Link to Ligand in BindingDB>  (1) 
http://www.bindingdb.org/bind/chemsearch/marvin/MolStructure.jsp?monomerid=50613294

>  <Link to Ligand-Target Pair in BindingDB>  (1) 
http://www.bindingdb.org/jsp/dbsearch/PrimarySearch_ki.jsp?energyterm=kJ/mole&tag=r21&monomerid=50613294&enzyme=Type-1+angiotensin+II+receptor&column=ki&startPg=0&Increment=50&submit=Search

>  <Ligand HET ID in PDB>  (1) 


>  <PDB ID(s) for Ligand-Target Complex>  (1) 


>  <PubChem CID of Ligand>  (1) 
171344487

>  <PubChem SID of Ligand>  (1) 
494503042

>  <ChEBI ID of Ligand>  (1) 


>  <ChEMBL ID of Ligand>  (1) 


>  <DrugBank ID of Ligand>  (1) 


>  <IUPHAR_GRAC ID of Ligand>  (1) 


>  <KEGG ID of Ligand>  (1) 


>  <ZINC ID of Ligand>  (1) 


>  <Number of Protein Chains in Target (bigger than 1 implies a multichain complex)>  (1) 
1

>  <BindingDB Target Chain Sequence>  (1) 
MILNSSTEDGIKRIQDDCPKAGRHNYIFVMIPTLYSIIFVVGIFGNSLVVIVIYFYMKLKTVASVFLLNLALADLCFLLTLPLWAVYTAMEYRWPFGNYLCKIASASVSFNLYASVFLLTCLSIDRYLAIVHPMKSRLRRTMLVAKVTCIIIWLLAGLASLPAIIHRNVFFIENTNITVCAFHYESQNSTLPIGLGLTKNILGFLFPFLIILTSYTLIWKALKKAYEIQKNKPRNDDIFKIIMAIVLFFFFSWIPHQIFTFLDVLIQLGIIRDCRIADIVDTAMPITICIAYFNNCLNPLFYGFLGKKFKRYFLQLLKYIPPKAKSHSNLSTKMSTLSYRPSDNVSSSTKKPAPCFEVE

>  <PDB ID(s) of Target Chain>  (1) 
6DO1,6OS0,6OS1,6OS2

>  <UniProt (SwissProt) Recommended Name of Target Chain>  (1) 
Type-1 angiotensin II receptor

>  <UniProt (SwissProt) Entry Name of Target Chain>  (1) 
AGTR1_HUMAN

>  <UniProt (SwissProt) Primary ID of Target Chain>  (1) 
P30556

>  <UniProt (SwissProt) Secondary ID(s) of Target Chain>  (1) 
Q13725 Q8TBK4

>  <UniProt (SwissProt) Alternative ID(s) of Target Chain>  (1) 


>  <UniProt (TrEMBL) Submitted Name of Target Chain>  (1) 


>  <UniProt (TrEMBL) Entry Name of Target Chain>  (1) 


>  <UniProt (TrEMBL) Primary ID of Target Chain>  (1) 


>  <UniProt (TrEMBL) Secondary ID(s) of Target Chain>  (1) 


>  <UniProt (TrEMBL) Alternative ID(s) of Target Chain>  (1) 


$$$$
