
     RDKit          2D

 41 45  0  0  0  0  0  0  0  0999 V2000
   25.4264  -27.1613    0.0000 C   0  0  0  0  0  0  0  0  0  0  0  0
   25.4253  -27.9808    0.0000 C   0  0  0  0  0  0  0  0  0  0  0  0
   26.1333  -28.3898    0.0000 C   0  0  0  0  0  0  0  0  0  0  0  0
   26.8430  -27.9803    0.0000 C   0  0  0  0  0  0  0  0  0  0  0  0
   26.8402  -27.1577    0.0000 C   0  0  0  0  0  0  0  0  0  0  0  0
   26.1315  -26.7524    0.0000 C   0  0  0  0  0  0  0  0  0  0  0  0
   27.5513  -28.3878    0.0000 N   0  0  0  0  0  0  0  0  0  0  0  0
   28.2584  -27.9781    0.0000 C   0  0  0  0  0  0  0  0  0  0  0  0
   28.9668  -28.3856    0.0000 C   0  0  0  0  0  0  0  0  0  0  0  0
   28.2571  -27.1609    0.0000 O   0  0  0  0  0  0  0  0  0  0  0  0
   28.9634  -29.2012    0.0000 C   0  0  0  0  0  0  0  0  0  0  0  0
   29.6709  -29.6086    0.0000 C   0  0  0  0  0  0  0  0  0  0  0  0
   30.3790  -29.1989    0.0000 C   0  0  0  0  0  0  0  0  0  0  0  0
   30.3751  -28.3775    0.0000 C   0  0  0  0  0  0  0  0  0  0  0  0
   29.6670  -27.9737    0.0000 C   0  0  0  0  0  0  0  0  0  0  0  0
   24.7186  -26.7528    0.0000 C   0  0  0  0  0  0  0  0  0  0  0  0
   24.7184  -25.9356    0.0000 N   0  0  0  0  0  0  0  0  0  0  0  0
   25.3852  -25.4564    0.0000 C   0  0  0  0  0  0  0  0  0  0  0  0
   25.1325  -24.6792    0.0000 N   0  0  0  0  0  0  0  0  0  0  0  0
   24.3153  -24.6794    0.0000 N   0  0  0  0  0  0  0  0  0  0  0  0
   24.0631  -25.4567    0.0000 C   0  0  0  0  0  0  0  0  0  0  0  0
   23.2856  -25.7083    0.0000 C   0  0  0  0  0  0  0  0  0  0  0  0
   23.1147  -26.5074    0.0000 C   0  0  0  0  0  0  0  0  0  0  0  0
   23.7214  -27.0549    0.0000 C   0  0  0  0  0  0  0  0  0  0  0  0
   29.6563  -27.1556    0.0000 C   0  0  0  0  0  0  0  0  0  0  0  0
   26.1618  -25.7108    0.0000 S   0  0  0  0  0  0  0  0  0  0  0  0
   26.7705  -25.1655    0.0000 C   0  0  0  0  0  0  0  0  0  0  0  0
   30.3083  -26.6653    0.0000 N   0  0  0  0  0  0  0  0  0  0  0  0
   30.0454  -25.8904    0.0000 N   0  0  0  0  0  0  0  0  0  0  0  0
   29.2271  -25.9011    0.0000 N   0  0  0  0  0  0  0  0  0  0  0  0
   28.9846  -26.6825    0.0000 N   0  0  0  0  0  0  0  0  0  0  0  0
   26.6025  -24.3657    0.0000 C   0  0  0  0  0  0  0  0  0  0  0  0
   27.2134  -23.8254    0.0000 C   0  0  0  0  0  0  0  0  0  0  0  0
   27.0460  -23.0263    0.0000 C   0  0  0  0  0  0  0  0  0  0  0  0
   26.2687  -22.7712    0.0000 C   0  0  0  0  0  0  0  0  0  0  0  0
   25.6587  -23.3213    0.0000 C   0  0  0  0  0  0  0  0  0  0  0  0
   25.8293  -24.1183    0.0000 C   0  0  0  0  0  0  0  0  0  0  0  0
   23.5505  -27.8541    0.0000 C   0  0  0  0  0  0  0  0  0  0  0  0
   27.9891  -24.0825    0.0000 C   0  0  0  0  0  0  0  0  0  0  0  0
   28.1543  -24.8828    0.0000 O   0  0  0  0  0  0  0  0  0  0  0  0
   28.5996  -23.5392    0.0000 O   0  0  0  0  0  0  0  0  0  0  0  0
  1  2  2  0
  2  3  1  0
  3  4  2  0
  4  5  1  0
  5  6  2  0
  6  1  1  0
  4  7  1  0
  7  8  1  0
  8  9  1  0
  8 10  2  0
  9 11  2  0
 11 12  1  0
 12 13  2  0
 13 14  1  0
 14 15  2  0
 15  9  1  0
  1 16  1  0
 16 17  1  0
 17 18  1  0
 18 19  2  0
 19 20  1  0
 20 21  2  0
 21 17  1  0
 21 22  1  0
 22 23  1  0
 23 24  1  0
 15 25  1  0
 18 26  1  0
 26 27  1  0
 25 28  2  0
 28 29  1  0
 29 30  2  0
 30 31  1  0
 31 25  1  0
 27 32  1  0
 32 33  2  0
 33 34  1  0
 34 35  2  0
 35 36  1  0
 36 37  2  0
 37 32  1  0
 24 38  1  0
 33 39  1  0
 39 40  2  0
 39 41  1  0
M  END
>  <From>  (1) 
www.bindingDB.org

>  <BindingDB Reactant_set_id>  (1) 
51183579

>  <Ligand InChI>  (1) 
InChI=1S/C29H28N8O3S/c1-2-3-12-25-31-34-29(41-18-20-8-4-5-9-22(20)28(39)40)37(25)17-19-13-15-21(16-14-19)30-27(38)24-11-7-6-10-23(24)26-32-35-36-33-26/h4-11,13-16H,2-3,12,17-18H2,1H3,(H,30,38)(H,39,40)(H,32,33,35,36)

>  <Ligand InChI Key>  (1) 
USIFVANTNLTPFC-UHFFFAOYSA-N

>  <BindingDB MonomerID>  (1) 
50486763

>  <BindingDB Ligand Name>  (1) 
CHEMBL2237600

>  <Target Name>  (1) 
Type-1 angiotensin II receptor

>  <Target Source Organism According to Curator or DataSource>  (1) 
Oryctolagus cuniculus

>  <Ki (nM)>  (1) 


>  <IC50 (nM)>  (1) 
 1.5

>  <Kd (nM)>  (1) 


>  <EC50 (nM)>  (1) 


>  <kon (M-1-s-1)>  (1) 


>  <koff (s-1)>  (1) 


>  <pH>  (1) 


>  <Temp C>  (1) 


>  <Curation/DataSource>  (1) 
ChEMBL

>  <Article DOI>  (1) 
10.1007/s00044-011-9756-4

>  <BindingDB Entry DOI>  (1) 
10.7270/Q2833VXQ

>  <PMID>  (1) 


>  <PubChem AID>  (1) 


>  <Patent Number>  (1) 


>  <Authors>  (1) 
n/a

>  <Institution>  (1) 
n/a

>  <Link to Ligand in BindingDB>  (1) 
http://www.bindingdb.org/bind/chemsearch/marvin/MolStructure.jsp?monomerid=50486763

>  <Link to Ligand-Target Pair in BindingDB>  (1) 
http://www.bindingdb.org/jsp/dbsearch/PrimarySearch_ki.jsp?energyterm=kJ/mole&tag=r21&monomerid=50486763&enzyme=Type-1+angiotensin+II+receptor&column=ki&startPg=0&Increment=50&submit=Search

>  <Ligand HET ID in PDB>  (1) 


>  <PDB ID(s) for Ligand-Target Complex>  (1) 


>  <PubChem CID of Ligand>  (1) 
19010048

>  <PubChem SID of Ligand>  (1) 
433954028

>  <ChEBI ID of Ligand>  (1) 


>  <ChEMBL ID of Ligand>  (1) 


>  <DrugBank ID of Ligand>  (1) 


>  <IUPHAR_GRAC ID of Ligand>  (1) 


>  <KEGG ID of Ligand>  (1) 


>  <ZINC ID of Ligand>  (1) 


>  <Number of Protein Chains in Target (bigger than 1 implies a multichain complex)>  (1) 
1

>  <BindingDB Target Chain Sequence>  (1) 
MMLNSSTEDGIKRIQDDCPKAGRHNYIFVMIPTLYSIIFVVGIFGNSLAVIVIYFYMKLKTVASVFLLNLALADLCFLLTLPLWAVYTAMEYRWPFGNYLCKIASASVSFNLYASVFLLTCLSIDRYLAIVHPMKSRLRRTMLVAKVTCIIIWLLAGLASLPAIIHRNVFFIENTNITVCAFHYESQNSTLPIGLGLTKNILGFLFPFLIILTSYTLIWKALKKAYEIQKNKPRNDDIFKIIMAIVLFFFFSWVPHQIFTFLDVLIQLGVIHDCRIADIVDTAMPITICIAYFNNCLNPLFYGFLGKKFKKYFLQLLKYIPPKAKSHSNLSTKMSTLSYRPSDNVSSSSKKPVPCFEVE

>  <PDB ID(s) of Target Chain>  (1) 
6DO1,6OS0,6OS1,6OS2

>  <UniProt (SwissProt) Recommended Name of Target Chain>  (1) 
Type-1 angiotensin II receptor

>  <UniProt (SwissProt) Entry Name of Target Chain>  (1) 
AGTR1_RABIT

>  <UniProt (SwissProt) Primary ID of Target Chain>  (1) 
P34976

>  <UniProt (SwissProt) Secondary ID(s) of Target Chain>  (1) 


>  <UniProt (SwissProt) Alternative ID(s) of Target Chain>  (1) 


>  <UniProt (TrEMBL) Submitted Name of Target Chain>  (1) 


>  <UniProt (TrEMBL) Entry Name of Target Chain>  (1) 


>  <UniProt (TrEMBL) Primary ID of Target Chain>  (1) 


>  <UniProt (TrEMBL) Secondary ID(s) of Target Chain>  (1) 


>  <UniProt (TrEMBL) Alternative ID(s) of Target Chain>  (1) 


$$$$
