
     RDKit          2D

 50 55  0  0  1  0  0  0  0  0999 V2000
    3.8542   -5.9500    0.0000 C   0  0  0  0  0  0  0  0  0  0  0  0
    3.1375   -6.3625    0.0000 N   0  0  0  0  0  0  0  0  0  0  0  0
    3.1417   -7.1917    0.0000 C   0  0  0  0  0  0  0  0  0  0  0  0
    1.7042   -7.2000    0.0000 N   0  0  0  0  0  0  0  0  0  0  0  0
    0.9917   -7.6167    0.0000 C   0  0  0  0  0  0  0  0  0  0  0  0
    0.3125  -12.1625    0.0000 C   0  0  0  0  0  0  0  0  0  0  0  0
   -0.3750  -11.0125    0.0000 N   0  0  0  0  0  0  0  0  0  0  0  0
    0.3792  -11.3417    0.0000 N   0  0  0  0  0  0  0  0  0  0  0  0
   -0.9208  -11.6292    0.0000 N   0  0  0  0  0  0  0  0  0  0  0  0
    3.8500   -5.1250    0.0000 N   0  0  0  0  0  0  0  0  0  0  0  0
    2.4167   -7.6125    0.0000 C   0  0  0  0  0  0  0  0  0  0  0  0
   -0.5000  -12.3417    0.0000 N   0  0  0  0  0  0  0  0  0  0  0  0
    0.9917   -8.4417    0.0000 N   0  0  0  0  0  0  0  0  0  0  0  0
    1.0250  -12.5667    0.0000 C   0  0  0  0  0  0  0  0  0  0  0  0
    3.8542   -7.6042    0.0000 C   0  0  0  0  0  0  0  0  0  0  0  0
    1.7375  -12.1417    0.0000 C   0  0  0  0  0  0  0  0  0  0  0  0
    2.4167   -5.9417    0.0000 C   0  0  0  0  0  0  0  0  0  0  0  0
    4.5667   -6.3542    0.0000 O   0  0  0  0  0  0  0  0  0  0  0  0
    1.7000   -6.3667    0.0000 C   0  0  0  0  0  0  0  0  0  0  0  0
    1.7292  -11.3292    0.0000 C   0  0  0  0  0  0  0  0  0  0  0  0
    0.2750   -7.2042    0.0000 O   0  0  0  0  0  0  0  0  0  0  0  0
    1.7042   -8.8500    0.0000 C   0  0  0  0  0  0  0  0  0  0  0  0
    3.1375   -4.7125    0.0000 C   0  0  0  0  0  0  0  0  0  0  0  0
    4.5667   -4.7042    0.0000 C   0  0  0  0  0  0  0  0  0  0  0  0
    3.8542   -8.4292    0.0000 O   0  0  0  0  0  0  0  0  0  0  0  0
    2.4417  -10.9042    0.0000 C   0  0  0  0  0  0  0  0  0  0  0  0
    1.0042  -10.9167    0.0000 C   0  0  0  0  0  0  0  0  0  0  0  0
    1.7125   -9.6750    0.0000 C   0  0  0  0  0  0  0  0  0  0  0  0
    4.5667   -7.1917    0.0000 O   0  0  0  0  0  0  0  0  0  0  0  0
    1.0000  -10.0917    0.0000 C   0  0  0  0  0  0  0  0  0  0  0  0
    2.4292  -10.0792    0.0000 C   0  0  0  0  0  0  0  0  0  0  0  0
    0.2792   -8.8542    0.0000 C   0  0  0  0  0  0  0  0  0  0  0  0
    1.0292  -13.3917    0.0000 C   0  0  0  0  0  0  0  0  0  0  0  0
    2.4542  -12.5500    0.0000 C   0  0  0  0  0  0  0  0  0  0  0  0
    5.2750   -5.1167    0.0000 C   0  0  0  0  0  0  0  0  0  0  0  0
    4.5542   -3.8875    0.0000 C   0  0  0  0  0  0  0  0  0  0  0  0
    3.1375   -3.8917    0.0000 C   0  0  0  0  0  0  0  0  0  0  0  0
    2.4292   -5.1292    0.0000 C   0  0  0  0  0  0  0  0  0  0  0  0
   -0.4333   -8.4417    0.0000 C   0  0  0  0  0  0  0  0  0  0  0  0
   -1.8625   -8.4500    0.0000 C   0  0  0  0  0  0  0  0  0  0  0  0
   -1.1458   -8.8542    0.0000 C   0  0  0  0  0  0  0  0  0  0  0  0
    2.4667  -13.3750    0.0000 C   0  0  0  0  0  0  0  0  0  0  0  0
    1.7542  -13.8000    0.0000 C   0  0  0  0  0  0  0  0  0  0  0  0
   -2.5750   -8.8625    0.0000 C   0  0  0  0  0  0  0  0  0  0  0  0
    5.2667   -3.4667    0.0000 C   0  0  0  0  0  0  0  0  0  0  0  0
    2.4167   -3.4792    0.0000 C   0  0  0  0  0  0  0  0  0  0  0  0
    1.7125   -4.7250    0.0000 C   0  0  0  0  0  0  0  0  0  0  0  0
    5.9875   -4.7042    0.0000 C   0  0  0  0  0  0  0  0  0  0  0  0
    5.9875   -3.8792    0.0000 C   0  0  0  0  0  0  0  0  0  0  0  0
    1.7042   -3.8917    0.0000 C   0  0  0  0  0  0  0  0  0  0  0  0
  2  1  1  0
  3  2  1  0
  4 19  1  0
  5  4  1  0
  6 14  1  0
  7  8  1  0
  8  6  1  0
  9 12  1  0
 10  1  1  0
  3 11  1  0
 12  6  2  0
 13  5  1  0
 14 16  1  0
  3 15  1  6
 16 20  1  0
 17  2  1  0
 18  1  2  0
 19 17  1  0
 20 26  2  0
 21  5  2  0
 22 13  1  0
 23 10  1  0
 24 10  1  0
 25 15  2  0
 26 31  1  0
 27 30  2  0
 28 22  1  0
 29 15  1  0
 30 28  1  0
 31 28  2  0
 32 13  1  0
 33 14  2  0
 34 16  2  0
 35 24  2  0
 36 24  1  0
 37 23  2  0
 38 23  1  0
 39 32  1  0
 40 41  1  0
 41 39  1  0
 42 34  1  0
 43 42  2  0
 44 40  1  0
 45 36  2  0
 46 37  1  0
 47 38  2  0
 48 35  1  0
 49 45  1  0
 50 47  1  0
  4 11  1  0
 48 49  2  0
 46 50  2  0
 27 20  1  0
 33 43  1  0
  7  9  2  0
M  END
>  <From>  (1) 
www.bindingDB.org

>  <BindingDB Reactant_set_id>  (1) 
50779341

>  <Ligand InChI>  (1) 
InChI=1S/C38H40N8O4/c1-2-3-12-23-43(26-28-19-21-29(22-20-28)32-17-10-11-18-33(32)35-39-41-42-40-35)37(49)44-24-25-45(34(27-44)36(47)48)38(50)46(30-13-6-4-7-14-30)31-15-8-5-9-16-31/h4-11,13-22,34H,2-3,12,23-27H2,1H3,(H,47,48)(H,39,40,41,42)/t34-/m0/s1

>  <Ligand InChI Key>  (1) 
KWTJDPDMNWYGMB-UMSFTDKQSA-N

>  <BindingDB MonomerID>  (1) 
50049180

>  <BindingDB Ligand Name>  (1) 
(S)-1-Diphenylcarbamoyl-4-{pentyl-[2'-(1H-tetrazol-5-yl)-biphenyl-4-ylmethyl]-carbamoyl}-piperazine-2-carboxylic acid::CHEMBL348157::L-162132

>  <Target Name>  (1) 
Type-1 angiotensin II receptor

>  <Target Source Organism According to Curator or DataSource>  (1) 
Homo sapiens

>  <Ki (nM)>  (1) 


>  <IC50 (nM)>  (1) 
 15

>  <Kd (nM)>  (1) 


>  <EC50 (nM)>  (1) 


>  <kon (M-1-s-1)>  (1) 


>  <koff (s-1)>  (1) 


>  <pH>  (1) 


>  <Temp C>  (1) 


>  <Curation/DataSource>  (1) 
ChEMBL

>  <Article DOI>  (1) 
10.1021/jm9504722

>  <BindingDB Entry DOI>  (1) 
10.7270/Q29P3299

>  <PMID>  (1) 
8576904

>  <PubChem AID>  (1) 


>  <Patent Number>  (1) 


>  <Authors>  (1) 
Wexler, RR; Greenlee, WJ; Irvin, JD; Goldberg, MR; Prendergast, K; Smith, RD; Timmermans, PB

>  <Institution>  (1) 
DuPont Pharmaceuticals Company

>  <Link to Ligand in BindingDB>  (1) 
http://www.bindingdb.org/bind/chemsearch/marvin/MolStructure.jsp?monomerid=50049180

>  <Link to Ligand-Target Pair in BindingDB>  (1) 
http://www.bindingdb.org/jsp/dbsearch/PrimarySearch_ki.jsp?energyterm=kJ/mole&tag=r21&monomerid=50049180&enzyme=Type-1+angiotensin+II+receptor&column=ki&startPg=0&Increment=50&submit=Search

>  <Ligand HET ID in PDB>  (1) 


>  <PDB ID(s) for Ligand-Target Complex>  (1) 


>  <PubChem CID of Ligand>  (1) 
44372814

>  <PubChem SID of Ligand>  (1) 
103979534

>  <ChEBI ID of Ligand>  (1) 


>  <ChEMBL ID of Ligand>  (1) 
CHEMBL348157

>  <DrugBank ID of Ligand>  (1) 


>  <IUPHAR_GRAC ID of Ligand>  (1) 


>  <KEGG ID of Ligand>  (1) 


>  <ZINC ID of Ligand>  (1) 
ZINC03929838

>  <Number of Protein Chains in Target (bigger than 1 implies a multichain complex)>  (1) 
1

>  <BindingDB Target Chain Sequence>  (1) 
MILNSSTEDGIKRIQDDCPKAGRHNYIFVMIPTLYSIIFVVGIFGNSLVVIVIYFYMKLKTVASVFLLNLALADLCFLLTLPLWAVYTAMEYRWPFGNYLCKIASASVSFNLYASVFLLTCLSIDRYLAIVHPMKSRLRRTMLVAKVTCIIIWLLAGLASLPAIIHRNVFFIENTNITVCAFHYESQNSTLPIGLGLTKNILGFLFPFLIILTSYTLIWKALKKAYEIQKNKPRNDDIFKIIMAIVLFFFFSWIPHQIFTFLDVLIQLGIIRDCRIADIVDTAMPITICIAYFNNCLNPLFYGFLGKKFKRYFLQLLKYIPPKAKSHSNLSTKMSTLSYRPSDNVSSSTKKPAPCFEVE

>  <PDB ID(s) of Target Chain>  (1) 
6DO1,6OS0,6OS1,6OS2

>  <UniProt (SwissProt) Recommended Name of Target Chain>  (1) 
Type-1 angiotensin II receptor

>  <UniProt (SwissProt) Entry Name of Target Chain>  (1) 
AGTR1_HUMAN

>  <UniProt (SwissProt) Primary ID of Target Chain>  (1) 
P30556

>  <UniProt (SwissProt) Secondary ID(s) of Target Chain>  (1) 
Q13725 Q8TBK4

>  <UniProt (SwissProt) Alternative ID(s) of Target Chain>  (1) 


>  <UniProt (TrEMBL) Submitted Name of Target Chain>  (1) 


>  <UniProt (TrEMBL) Entry Name of Target Chain>  (1) 


>  <UniProt (TrEMBL) Primary ID of Target Chain>  (1) 


>  <UniProt (TrEMBL) Secondary ID(s) of Target Chain>  (1) 


>  <UniProt (TrEMBL) Alternative ID(s) of Target Chain>  (1) 


$$$$
