
     RDKit          2D

 43 47  0  0  0  0  0  0  0  0999 V2000
    6.6567   -3.2883    0.0000 N   0  0  0  0  0  0  0  0  0  0  0  0
    6.2557   -4.5600    0.0000 N   0  0  0  0  0  0  0  0  0  0  0  0
    6.9145   -4.0788    0.0000 C   0  0  0  0  0  0  0  0  0  0  0  0
    5.8318   -3.2883    0.0000 N   0  0  0  0  0  0  0  0  0  0  0  0
    7.1493   -2.6180    0.0000 C   0  0  0  0  0  0  0  0  0  0  0  0
    5.5854   -4.0788    0.0000 C   0  0  0  0  0  0  0  0  0  0  0  0
    9.8131   -5.7974    0.0000 C   0  0  0  0  0  0  0  0  0  0  0  0
    9.1429   -5.3162    0.0000 N   0  0  0  0  0  0  0  0  0  0  0  0
    9.4007   -4.5428    0.0000 N   0  0  0  0  0  0  0  0  0  0  0  0
   10.4834   -5.3162    0.0000 N   0  0  0  0  0  0  0  0  0  0  0  0
   10.2256   -4.5257    0.0000 N   0  0  0  0  0  0  0  0  0  0  0  0
    7.9628   -2.7040    0.0000 C   0  0  0  0  0  0  0  0  0  0  0  0
    6.4275   -2.2056    0.0000 C   0  0  0  0  0  0  0  0  0  0  0  0
    9.8189   -6.6223    0.0000 C   0  0  0  0  0  0  0  0  0  0  0  0
    9.1085   -7.0348    0.0000 C   0  0  0  0  0  0  0  0  0  0  0  0
    6.2557   -5.3849    0.0000 C   0  0  0  0  0  0  0  0  0  0  0  0
    6.4275   -1.3806    0.0000 C   0  0  0  0  0  0  0  0  0  0  0  0
    7.6993   -4.3366    0.0000 O   0  0  0  0  0  0  0  0  0  0  0  0
    8.3925   -6.6223    0.0000 C   0  0  0  0  0  0  0  0  0  0  0  0
    8.3008   -3.4601    0.0000 O   0  0  0  0  0  0  0  0  0  0  0  0
    8.4440   -2.0337    0.0000 C   0  0  0  0  0  0  0  0  0  0  0  0
    7.1493   -0.9682    0.0000 O   0  0  0  0  0  0  0  0  0  0  0  0
    7.6879   -7.0348    0.0000 C   0  0  0  0  0  0  0  0  0  0  0  0
    8.4039   -5.7974    0.0000 C   0  0  0  0  0  0  0  0  0  0  0  0
    6.9660   -5.7974    0.0000 C   0  0  0  0  0  0  0  0  0  0  0  0
    4.8006   -4.3366    0.0000 C   0  0  0  0  0  0  0  0  0  0  0  0
    6.9775   -6.6223    0.0000 C   0  0  0  0  0  0  0  0  0  0  0  0
    7.6821   -5.3849    0.0000 C   0  0  0  0  0  0  0  0  0  0  0  0
    5.7115   -0.9682    0.0000 O   0  0  0  0  0  0  0  0  0  0  0  0
   10.5349   -7.0348    0.0000 C   0  0  0  0  0  0  0  0  0  0  0  0
    9.1085   -7.8597    0.0000 C   0  0  0  0  0  0  0  0  0  0  0  0
    9.2632   -2.1196    0.0000 C   0  0  0  0  0  0  0  0  0  0  0  0
    8.1117   -1.2947    0.0000 C   0  0  0  0  0  0  0  0  0  0  0  0
    5.7229   -0.1433    0.0000 C   0  0  0  0  0  0  0  0  0  0  0  0
    4.1819   -3.7867    0.0000 C   0  0  0  0  0  0  0  0  0  0  0  0
    3.4028   -4.0445    0.0000 C   0  0  0  0  0  0  0  0  0  0  0  0
    9.8189   -8.2722    0.0000 C   0  0  0  0  0  0  0  0  0  0  0  0
   10.5349   -7.8597    0.0000 C   0  0  0  0  0  0  0  0  0  0  0  0
    5.0011    0.2692    0.0000 C   0  0  0  0  0  0  0  0  0  0  0  0
    2.7841   -3.4945    0.0000 C   0  0  0  0  0  0  0  0  0  0  0  0
    8.5929   -0.6245    0.0000 C   0  0  0  0  0  0  0  0  0  0  0  0
    9.7502   -1.4494    0.0000 C   0  0  0  0  0  0  0  0  0  0  0  0
    9.4178   -0.7104    0.0000 C   0  0  0  0  0  0  0  0  0  0  0  0
  2  3  1  0
  3  1  1  0
  4  1  1  0
  5  1  1  0
  6  4  2  0
  7 14  1  0
  8  7  2  0
  9  8  1  0
 10  7  1  0
 11 10  1  0
 12  5  1  0
 13  5  1  0
 14 15  1  0
 15 19  1  0
 16  2  1  0
 17 13  1  0
 18  3  2  0
 19 24  2  0
 20 12  2  0
 21 12  1  0
 22 17  2  0
 23 27  2  0
 24 28  1  0
 25 16  1  0
 26  6  1  0
 27 25  1  0
 28 25  2  0
 29 17  1  0
 30 14  2  0
 31 15  2  0
 32 21  2  0
 33 21  1  0
 34 29  1  0
 35 26  1  0
 36 35  1  0
 37 31  1  0
 38 37  2  0
 39 34  1  0
 40 36  1  0
 41 33  2  0
 42 32  1  0
 43 41  1  0
  6  2  1  0
 42 43  2  0
 23 19  1  0
 38 30  1  0
 11  9  2  0
M  END
>  <From>  (1) 
www.bindingDB.org

>  <BindingDB Reactant_set_id>  (1) 
50071152

>  <Ligand InChI>  (1) 
InChI=1S/C32H33N7O4/c1-3-5-15-28-35-39(27(20-29(40)43-4-2)30(41)24-11-7-6-8-12-24)32(42)38(28)21-22-16-18-23(19-17-22)25-13-9-10-14-26(25)31-33-36-37-34-31/h6-14,16-19,27H,3-5,15,20-21H2,1-2H3,(H,33,34,36,37)

>  <Ligand InChI Key>  (1) 
HPXVKCMIUUXJFU-UHFFFAOYSA-N

>  <BindingDB MonomerID>  (1) 
50044339

>  <BindingDB Ligand Name>  (1) 
3-{3-Butyl-5-oxo-4-[2'-(2H-tetrazol-5-yl)-biphenyl-4-ylmethyl]-4,5-dihydro-[1,2,4]triazol-1-yl}-4-oxo-4-phenyl-butyric acid ethyl ester::CHEMBL308416

>  <Target Name>  (1) 
Type-1 angiotensin II receptor B

>  <Target Source Organism According to Curator or DataSource>  (1) 
Rattus

>  <Ki (nM)>  (1) 


>  <IC50 (nM)>  (1) 
 36

>  <Kd (nM)>  (1) 


>  <EC50 (nM)>  (1) 


>  <kon (M-1-s-1)>  (1) 


>  <koff (s-1)>  (1) 


>  <pH>  (1) 


>  <Temp C>  (1) 


>  <Curation/DataSource>  (1) 
ChEMBL

>  <Article DOI>  (1) 
10.1021/jm00067a015

>  <BindingDB Entry DOI>  (1) 
10.7270/Q2C53JXM

>  <PMID>  (1) 
8340920

>  <PubChem AID>  (1) 


>  <Patent Number>  (1) 


>  <Authors>  (1) 
Huang, HC; Reitz, DB; Chamberlain, TS; Olins, GM; Corpus, VM; McMahon, EG; Palomo, MA; Koepke, JP; Smits, GJ; McGraw, DE

>  <Institution>  (1) 
Searle R&D

>  <Link to Ligand in BindingDB>  (1) 
http://www.bindingdb.org/bind/chemsearch/marvin/MolStructure.jsp?monomerid=50044339

>  <Link to Ligand-Target Pair in BindingDB>  (1) 
http://www.bindingdb.org/jsp/dbsearch/PrimarySearch_ki.jsp?energyterm=kJ/mole&tag=r21&monomerid=50044339&enzyme=Type-1+angiotensin+II+receptor+B&column=ki&startPg=0&Increment=50&submit=Search

>  <Ligand HET ID in PDB>  (1) 


>  <PDB ID(s) for Ligand-Target Complex>  (1) 


>  <PubChem CID of Ligand>  (1) 
14951090

>  <PubChem SID of Ligand>  (1) 
103975594

>  <ChEBI ID of Ligand>  (1) 


>  <ChEMBL ID of Ligand>  (1) 
CHEMBL308416

>  <DrugBank ID of Ligand>  (1) 


>  <IUPHAR_GRAC ID of Ligand>  (1) 


>  <KEGG ID of Ligand>  (1) 


>  <ZINC ID of Ligand>  (1) 
ZINC26265443

>  <Number of Protein Chains in Target (bigger than 1 implies a multichain complex)>  (1) 
1

>  <BindingDB Target Chain Sequence>  (1) 
MTLNSSTEDGIKRIQDDCPKAGRHNYIFVMIPTLYSIIFVVGIFGNSLVVIVIYFYMKLKTVASVFLLNLALADLCFLLTLPLWAVYTAMEYRWPFGNHLCKIASASVSFNLYASVFLLTCLSIDRYLAIVHPMKSRLRRTMLVAKVTCIIIWLMAGLASLPAVIYRNVYFIENTNITVCAFHYESQNSTLPIGLGLTKNILGFVFPFLIILTSYTLIWKALKKAYKIQKNTPRNDDIFRIIMAIVLFFFFSWVPHQIFTFLDVLIQLGIIRDCEIADIVDTAMPITICIAYFNNCLNPLFYGFLGKKFKKYFLQLLKYIPPTAKSHAGLSTKMSTLSYRPSDNMSSSAKKSASFFEVE

>  <PDB ID(s) of Target Chain>  (1) 


>  <UniProt (SwissProt) Recommended Name of Target Chain>  (1) 
Type-1 angiotensin II receptor B

>  <UniProt (SwissProt) Entry Name of Target Chain>  (1) 
AGTRB_RAT

>  <UniProt (SwissProt) Primary ID of Target Chain>  (1) 
P29089

>  <UniProt (SwissProt) Secondary ID(s) of Target Chain>  (1) 


>  <UniProt (SwissProt) Alternative ID(s) of Target Chain>  (1) 


>  <UniProt (TrEMBL) Submitted Name of Target Chain>  (1) 


>  <UniProt (TrEMBL) Entry Name of Target Chain>  (1) 


>  <UniProt (TrEMBL) Primary ID of Target Chain>  (1) 


>  <UniProt (TrEMBL) Secondary ID(s) of Target Chain>  (1) 


>  <UniProt (TrEMBL) Alternative ID(s) of Target Chain>  (1) 


$$$$
