
     RDKit          2D

 32 36  0  0  0  0  0  0  0  0999 V2000
   -0.1149  -11.3816    0.0000 N   0  0  0  0  0  0  0  0  0  0  0  0
   -0.6033  -10.7094    0.0000 C   0  0  0  0  0  0  0  0  0  0  0  0
   -0.1207  -10.0372    0.0000 N   0  0  0  0  0  0  0  0  0  0  0  0
    0.6780  -11.1231    0.0000 C   0  0  0  0  0  0  0  0  0  0  0  0
    3.1945  -14.5358    0.0000 C   0  0  0  0  0  0  0  0  0  0  0  0
    1.3847  -11.5367    0.0000 C   0  0  0  0  0  0  0  0  0  0  0  0
    3.1255  -13.1914    0.0000 N   0  0  0  0  0  0  0  0  0  0  0  0
    2.6774  -13.8809    0.0000 N   0  0  0  0  0  0  0  0  0  0  0  0
    3.9298  -13.4155    0.0000 N   0  0  0  0  0  0  0  0  0  0  0  0
    0.6722  -10.2957    0.0000 C   0  0  0  0  0  0  0  0  0  0  0  0
    3.9643  -14.2428    0.0000 N   0  0  0  0  0  0  0  0  0  0  0  0
    2.9704  -15.3287    0.0000 C   0  0  0  0  0  0  0  0  0  0  0  0
    1.4134  -12.2376    0.0000 C   0  0  0  0  0  0  0  0  0  0  0  0
    2.1717  -15.5355    0.0000 C   0  0  0  0  0  0  0  0  0  0  0  0
   -0.1321  -13.1569    0.0000 C   0  0  0  0  0  0  0  0  0  0  0  0
    1.5915  -14.9437    0.0000 C   0  0  0  0  0  0  0  0  0  0  0  0
    0.7642  -12.6226    0.0000 O   0  0  0  0  0  0  0  0  0  0  0  0
   -1.4306  -10.7209    0.0000 O   0  0  0  0  0  0  0  0  0  0  0  0
    1.9018  -14.2083    0.0000 C   0  0  0  0  0  0  0  0  0  0  0  0
    0.7929  -15.1391    0.0000 C   0  0  0  0  0  0  0  0  0  0  0  0
    0.4481  -13.7544    0.0000 C   0  0  0  0  0  0  0  0  0  0  0  0
    2.1200  -12.5134    0.0000 O   0  0  0  0  0  0  0  0  0  0  0  0
    2.1086  -11.1231    0.0000 C   0  0  0  0  0  0  0  0  0  0  0  0
    1.2468  -13.5534    0.0000 C   0  0  0  0  0  0  0  0  0  0  0  0
    0.2126  -14.5531    0.0000 C   0  0  0  0  0  0  0  0  0  0  0  0
    1.3847   -9.8821    0.0000 C   0  0  0  0  0  0  0  0  0  0  0  0
    3.5506  -15.9147    0.0000 C   0  0  0  0  0  0  0  0  0  0  0  0
    1.9477  -16.3284    0.0000 C   0  0  0  0  0  0  0  0  0  0  0  0
    2.1086  -10.2957    0.0000 C   0  0  0  0  0  0  0  0  0  0  0  0
   -1.8557  -10.0027    0.0000 C   0  0  0  0  0  0  0  0  0  0  0  0
    2.5223  -16.9144    0.0000 C   0  0  0  0  0  0  0  0  0  0  0  0
    3.3266  -16.7248    0.0000 C   0  0  0  0  0  0  0  0  0  0  0  0
  2  1  1  0
  3  2  2  0
  4  1  1  0
  5 12  1  0
  6  4  2  0
  7  8  1  0
  8  5  2  0
  9 11  1  0
 10  4  1  0
 11  5  1  0
 12 14  1  0
 13  6  1  0
 14 16  1  0
 15  1  1  0
 16 20  2  0
 17 13  2  0
 18  2  1  0
 19 24  2  0
 20 25  1  0
 21 15  1  0
 22 13  1  0
 23  6  1  0
 24 21  1  0
 25 21  2  0
 26 10  2  0
 27 12  2  0
 28 14  2  0
 29 26  1  0
 30 18  1  0
 31 28  1  0
 32 31  2  0
 10  3  1  0
 16 19  1  0
 23 29  2  0
 32 27  1  0
  9  7  2  0
M  END
>  <From>  (1) 
www.bindingDB.org

>  <BindingDB Reactant_set_id>  (1) 
50764805

>  <Ligand InChI>  (1) 
InChI=1S/C23H18N6O3/c1-32-23-24-19-8-4-7-18(22(30)31)20(19)29(23)13-14-9-11-15(12-10-14)16-5-2-3-6-17(16)21-25-27-28-26-21/h2-12H,13H2,1H3,(H,30,31)(H,25,26,27,28)

>  <Ligand InChI Key>  (1) 
GGMUVWGZVYLWFZ-UHFFFAOYSA-N

>  <BindingDB MonomerID>  (1) 
50044403

>  <BindingDB Ligand Name>  (1) 
2-Methoxy-3-[2'-(1H-tetrazol-5-yl)-biphenyl-4-ylmethyl]-3H-benzoimidazole-4-carboxylic acid::CHEMBL309084

>  <Target Name>  (1) 
Type-1 angiotensin II receptor

>  <Target Source Organism According to Curator or DataSource>  (1) 
Bos taurus

>  <Ki (nM)>  (1) 


>  <IC50 (nM)>  (1) 
 32

>  <Kd (nM)>  (1) 


>  <EC50 (nM)>  (1) 


>  <kon (M-1-s-1)>  (1) 


>  <koff (s-1)>  (1) 


>  <pH>  (1) 


>  <Temp C>  (1) 


>  <Curation/DataSource>  (1) 
ChEMBL

>  <Article DOI>  (1) 
10.1021/jm00067a016

>  <BindingDB Entry DOI>  (1) 
10.7270/Q20Z73X8

>  <PMID>  (1) 
8340921

>  <PubChem AID>  (1) 


>  <Patent Number>  (1) 


>  <Authors>  (1) 
Kubo, K; Kohara, Y; Imamiya, E; Sugiura, Y; Inada, Y; Furukawa, Y; Nishikawa, K; Naka, T

>  <Institution>  (1) 
Takeda Chemical Industries, Ltd

>  <Link to Ligand in BindingDB>  (1) 
http://www.bindingdb.org/bind/chemsearch/marvin/MolStructure.jsp?monomerid=50044403

>  <Link to Ligand-Target Pair in BindingDB>  (1) 
http://www.bindingdb.org/jsp/dbsearch/PrimarySearch_ki.jsp?energyterm=kJ/mole&tag=r21&monomerid=50044403&enzyme=Type-1+angiotensin+II+receptor&column=ki&startPg=0&Increment=50&submit=Search

>  <Ligand HET ID in PDB>  (1) 


>  <PDB ID(s) for Ligand-Target Complex>  (1) 


>  <PubChem CID of Ligand>  (1) 
15654755

>  <PubChem SID of Ligand>  (1) 
103975657

>  <ChEBI ID of Ligand>  (1) 


>  <ChEMBL ID of Ligand>  (1) 
CHEMBL309084

>  <DrugBank ID of Ligand>  (1) 


>  <IUPHAR_GRAC ID of Ligand>  (1) 


>  <KEGG ID of Ligand>  (1) 


>  <ZINC ID of Ligand>  (1) 
ZINC13832280

>  <Number of Protein Chains in Target (bigger than 1 implies a multichain complex)>  (1) 
1

>  <BindingDB Target Chain Sequence>  (1) 
MILNSSTEDGIKRIQDDCPKAGRHNYIFIMIPTLYSIIFVVGIFGNSLVVIVIYFYMKLKTVASVFLLNLALADLCFLLTLPLWAVYTAMEYRWPFGNYLCKIASASVSFNLYASVFLLTCLSIDRYLAIVHPMKSRLRRTMLVAKVTCIIIWLLAGLASLPTIIHRNVFFIENTNITVCAFHYESQNSTLPVGLGLTKNILGFLFPFLIILTSYTLIWKTLKKAYEIQKNKPRKDDIFKIILAIVLFFFFSWVPHQIFTFMDVLIQLGLIRDCKIEDIVDTAMPITICLAYFNNCLNPLFYGFLGKKFKKYFLQLLKYIPPKAKSHSNLSTKMSTLSYRPSENGNSSTKKPAPCIEVE

>  <PDB ID(s) of Target Chain>  (1) 


>  <UniProt (SwissProt) Recommended Name of Target Chain>  (1) 
Type-1 angiotensin II receptor

>  <UniProt (SwissProt) Entry Name of Target Chain>  (1) 
AGTR1_BOVIN

>  <UniProt (SwissProt) Primary ID of Target Chain>  (1) 
P25104

>  <UniProt (SwissProt) Secondary ID(s) of Target Chain>  (1) 


>  <UniProt (SwissProt) Alternative ID(s) of Target Chain>  (1) 


>  <UniProt (TrEMBL) Submitted Name of Target Chain>  (1) 


>  <UniProt (TrEMBL) Entry Name of Target Chain>  (1) 


>  <UniProt (TrEMBL) Primary ID of Target Chain>  (1) 


>  <UniProt (TrEMBL) Secondary ID(s) of Target Chain>  (1) 


>  <UniProt (TrEMBL) Alternative ID(s) of Target Chain>  (1) 


$$$$
