
     RDKit          2D

 32 35  0  0  0  0  0  0  0  0999 V2000
   -2.6909   -1.1728    0.0000 C   0  0  0  0  0  0  0  0  0  0  0  0
   -2.1668   -1.8009    0.0000 N   0  0  0  0  0  0  0  0  0  0  0  0
   -3.4562   -1.4723    0.0000 N   0  0  0  0  0  0  0  0  0  0  0  0
   -1.1187    1.8341    0.0000 C   0  0  0  0  0  0  0  0  0  0  0  0
   -2.6160   -2.4996    0.0000 C   0  0  0  0  0  0  0  0  0  0  0  0
   -2.3415    1.3184    0.0000 N   0  0  0  0  0  0  0  0  0  0  0  0
   -1.5347    1.1312    0.0000 N   0  0  0  0  0  0  0  0  0  0  0  0
   -2.4164    2.1211    0.0000 N   0  0  0  0  0  0  0  0  0  0  0  0
   -3.4062   -2.2875    0.0000 C   0  0  0  0  0  0  0  0  0  0  0  0
   -1.6677    2.4538    0.0000 N   0  0  0  0  0  0  0  0  0  0  0  0
   -0.2953    1.8799    0.0000 C   0  0  0  0  0  0  0  0  0  0  0  0
    0.1539    1.1853    0.0000 C   0  0  0  0  0  0  0  0  0  0  0  0
   -1.0439    0.4076    0.0000 N   0  0  0  0  0  0  0  0  0  0  0  0
   -1.3433   -1.7593    0.0000 C   0  0  0  0  0  0  0  0  0  0  0  0
   -0.2204    0.4575    0.0000 C   0  0  0  0  0  0  0  0  0  0  0  0
   -2.4788   -0.3660    0.0000 O   0  0  0  0  0  0  0  0  0  0  0  0
   -0.9690   -1.0273    0.0000 C   0  0  0  0  0  0  0  0  0  0  0  0
   -1.4182   -0.3286    0.0000 C   0  0  0  0  0  0  0  0  0  0  0  0
    0.2288   -0.2495    0.0000 C   0  0  0  0  0  0  0  0  0  0  0  0
   -4.1507   -1.0273    0.0000 C   0  0  0  0  0  0  0  0  0  0  0  0
   -0.1455   -0.9774    0.0000 C   0  0  0  0  0  0  0  0  0  0  0  0
   -2.3165   -3.2732    0.0000 C   0  0  0  0  0  0  0  0  0  0  0  0
    0.0791    2.6160    0.0000 C   0  0  0  0  0  0  0  0  0  0  0  0
    0.9774    1.2310    0.0000 C   0  0  0  0  0  0  0  0  0  0  0  0
   -4.1133   -0.2038    0.0000 C   0  0  0  0  0  0  0  0  0  0  0  0
   -1.4931   -3.4062    0.0000 C   0  0  0  0  0  0  0  0  0  0  0  0
   -1.1936   -4.1715    0.0000 C   0  0  0  0  0  0  0  0  0  0  0  0
   -4.8120    0.2371    0.0000 C   0  0  0  0  0  0  0  0  0  0  0  0
    1.3517    1.9672    0.0000 C   0  0  0  0  0  0  0  0  0  0  0  0
    0.9025    2.6659    0.0000 C   0  0  0  0  0  0  0  0  0  0  0  0
   -0.3743   -4.2921    0.0000 C   0  0  0  0  0  0  0  0  0  0  0  0
   -4.7745    1.0606    0.0000 C   0  0  0  0  0  0  0  0  0  0  0  0
  2  1  1  0
  3  1  1  0
  4 11  1  0
  5  2  1  0
  6  7  1  0
  7  4  1  0
  8 10  1  0
  9  3  1  0
 10  4  2  0
 11 12  1  0
 12 15  1  0
 13 18  2  0
 14  2  1  0
 15 19  2  0
 16  1  2  0
 17 14  1  0
 18 17  1  0
 19 21  1  0
 20  3  1  0
 21 17  2  0
 22  5  1  0
 23 11  2  0
 24 12  2  0
 25 20  1  0
 26 22  1  0
 27 26  1  0
 28 25  1  0
 29 24  1  0
 30 29  2  0
 31 27  1  0
 32 28  1  0
  5  9  2  0
 13 15  1  0
 30 23  1  0
  6  8  2  0
M  END
>  <From>  (1) 
www.bindingDB.org

>  <BindingDB Reactant_set_id>  (1) 
50620765

>  <Ligand InChI>  (1) 
InChI=1S/C24H29N7O/c1-3-5-9-19-17-30(14-6-4-2)24(32)31(19)16-18-12-13-22(25-15-18)20-10-7-8-11-21(20)23-26-28-29-27-23/h7-8,10-13,15,17H,3-6,9,14,16H2,1-2H3,(H,26,27,28,29)

>  <Ligand InChI Key>  (1) 
MIKRUZGZQMVMAG-UHFFFAOYSA-N

>  <BindingDB MonomerID>  (1) 
50281814

>  <BindingDB Ligand Name>  (1) 
1,4-Dibutyl-3-{6-[2-(1H-tetrazol-5-yl)-phenyl]-pyridin-3-ylmethyl}-1,3-dihydro-imidazol-2-one::CHEMBL9642::SC-52892

>  <Target Name>  (1) 
Type-1 angiotensin II receptor

>  <Target Source Organism According to Curator or DataSource>  (1) 
Homo sapiens

>  <Ki (nM)>  (1) 


>  <IC50 (nM)>  (1) 
 6.5

>  <Kd (nM)>  (1) 


>  <EC50 (nM)>  (1) 


>  <kon (M-1-s-1)>  (1) 


>  <koff (s-1)>  (1) 


>  <pH>  (1) 


>  <Temp C>  (1) 


>  <Curation/DataSource>  (1) 
ChEMBL

>  <Article DOI>  (1) 
10.1016/j.bmc.2010.10.043

>  <BindingDB Entry DOI>  (1) 
10.7270/Q2H70G3T

>  <PMID>  (1) 
21071232

>  <PubChem AID>  (1) 


>  <Patent Number>  (1) 


>  <Authors>  (1) 
Naik, P; Murumkar, P; Giridhar, R; Yadav, MR

>  <Institution>  (1) 
The M. S. University of Baroda

>  <Link to Ligand in BindingDB>  (1) 
http://www.bindingdb.org/bind/chemsearch/marvin/MolStructure.jsp?monomerid=50281814

>  <Link to Ligand-Target Pair in BindingDB>  (1) 
http://www.bindingdb.org/jsp/dbsearch/PrimarySearch_ki.jsp?energyterm=kJ/mole&tag=r21&monomerid=50281814&enzyme=Type-1+angiotensin+II+receptor&column=ki&startPg=0&Increment=50&submit=Search

>  <Ligand HET ID in PDB>  (1) 


>  <PDB ID(s) for Ligand-Target Complex>  (1) 


>  <PubChem CID of Ligand>  (1) 
9932483

>  <PubChem SID of Ligand>  (1) 
104123488

>  <ChEBI ID of Ligand>  (1) 


>  <ChEMBL ID of Ligand>  (1) 
CHEMBL9642

>  <DrugBank ID of Ligand>  (1) 


>  <IUPHAR_GRAC ID of Ligand>  (1) 


>  <KEGG ID of Ligand>  (1) 


>  <ZINC ID of Ligand>  (1) 
ZINC01534668

>  <Number of Protein Chains in Target (bigger than 1 implies a multichain complex)>  (1) 
1

>  <BindingDB Target Chain Sequence>  (1) 
MILNSSTEDGIKRIQDDCPKAGRHNYIFVMIPTLYSIIFVVGIFGNSLVVIVIYFYMKLKTVASVFLLNLALADLCFLLTLPLWAVYTAMEYRWPFGNYLCKIASASVSFNLYASVFLLTCLSIDRYLAIVHPMKSRLRRTMLVAKVTCIIIWLLAGLASLPAIIHRNVFFIENTNITVCAFHYESQNSTLPIGLGLTKNILGFLFPFLIILTSYTLIWKALKKAYEIQKNKPRNDDIFKIIMAIVLFFFFSWIPHQIFTFLDVLIQLGIIRDCRIADIVDTAMPITICIAYFNNCLNPLFYGFLGKKFKRYFLQLLKYIPPKAKSHSNLSTKMSTLSYRPSDNVSSSTKKPAPCFEVE

>  <PDB ID(s) of Target Chain>  (1) 
6DO1,6OS0,6OS1,6OS2

>  <UniProt (SwissProt) Recommended Name of Target Chain>  (1) 
Type-1 angiotensin II receptor

>  <UniProt (SwissProt) Entry Name of Target Chain>  (1) 
AGTR1_HUMAN

>  <UniProt (SwissProt) Primary ID of Target Chain>  (1) 
P30556

>  <UniProt (SwissProt) Secondary ID(s) of Target Chain>  (1) 
Q13725 Q8TBK4

>  <UniProt (SwissProt) Alternative ID(s) of Target Chain>  (1) 


>  <UniProt (TrEMBL) Submitted Name of Target Chain>  (1) 


>  <UniProt (TrEMBL) Entry Name of Target Chain>  (1) 


>  <UniProt (TrEMBL) Primary ID of Target Chain>  (1) 


>  <UniProt (TrEMBL) Secondary ID(s) of Target Chain>  (1) 


>  <UniProt (TrEMBL) Alternative ID(s) of Target Chain>  (1) 


$$$$
