
     RDKit          2D

 45 48  0  0  0  0  0  0  0  0999 V2000
    9.2667   -5.3667    0.0000 S   0  0  0  0  0  0  0  0  0  0  0  0
    5.7167   -4.1292    0.0000 N   0  0  0  0  0  0  0  0  0  0  0  0
    4.9250   -3.8792    0.0000 C   0  0  0  0  0  0  0  0  0  0  0  0
    5.7042   -2.7875    0.0000 N   0  0  0  0  0  0  0  0  0  0  0  0
    6.2000   -3.4542    0.0000 C   0  0  0  0  0  0  0  0  0  0  0  0
    4.9167   -3.0500    0.0000 C   0  0  0  0  0  0  0  0  0  0  0  0
    4.2042   -4.2917    0.0000 N   0  0  0  0  0  0  0  0  0  0  0  0
   10.0917   -5.3750    0.0000 N   0  0  0  0  0  0  0  0  0  0  0  0
    9.2667   -6.1917    0.0000 C   0  0  0  0  0  0  0  0  0  0  0  0
    3.4917   -3.0500    0.0000 C   0  0  0  0  0  0  0  0  0  0  0  0
   10.5042   -4.6542    0.0000 C   0  0  0  0  0  0  0  0  0  0  0  0
    4.2042   -2.6375    0.0000 C   0  0  0  0  0  0  0  0  0  0  0  0
    8.5542   -6.6042    0.0000 C   0  0  0  0  0  0  0  0  0  0  0  0
    3.4917   -3.8792    0.0000 C   0  0  0  0  0  0  0  0  0  0  0  0
    2.7792   -2.6417    0.0000 N   0  0  0  0  0  0  0  0  0  0  0  0
    9.2667   -4.4667    0.0000 O   0  0  0  0  0  0  0  0  0  0  0  0
    8.4542   -5.3667    0.0000 O   0  0  0  0  0  0  0  0  0  0  0  0
    5.7125   -4.9542    0.0000 C   0  0  0  0  0  0  0  0  0  0  0  0
    2.0625   -3.0542    0.0000 C   0  0  0  0  0  0  0  0  0  0  0  0
    7.8417   -6.1917    0.0000 C   0  0  0  0  0  0  0  0  0  0  0  0
   10.1000   -3.9417    0.0000 O   0  0  0  0  0  0  0  0  0  0  0  0
    2.0625   -3.8792    0.0000 O   0  0  0  0  0  0  0  0  0  0  0  0
    7.1292   -6.6042    0.0000 C   0  0  0  0  0  0  0  0  0  0  0  0
    7.8417   -5.3667    0.0000 C   0  0  0  0  0  0  0  0  0  0  0  0
    6.4250   -5.3667    0.0000 C   0  0  0  0  0  0  0  0  0  0  0  0
   11.3292   -4.6625    0.0000 O   0  0  0  0  0  0  0  0  0  0  0  0
    7.0250   -3.4500    0.0000 C   0  0  0  0  0  0  0  0  0  0  0  0
    6.4167   -6.1917    0.0000 C   0  0  0  0  0  0  0  0  0  0  0  0
    7.1292   -4.9542    0.0000 C   0  0  0  0  0  0  0  0  0  0  0  0
    9.9792   -6.6042    0.0000 C   0  0  0  0  0  0  0  0  0  0  0  0
    8.5542   -7.4292    0.0000 C   0  0  0  0  0  0  0  0  0  0  0  0
    2.7750   -4.2917    0.0000 C   0  0  0  0  0  0  0  0  0  0  0  0
    1.3500   -2.6417    0.0000 C   0  0  0  0  0  0  0  0  0  0  0  0
   11.7417   -3.9500    0.0000 C   0  0  0  0  0  0  0  0  0  0  0  0
    7.4292   -2.7292    0.0000 C   0  0  0  0  0  0  0  0  0  0  0  0
    0.6292   -3.0542    0.0000 C   0  0  0  0  0  0  0  0  0  0  0  0
   12.5667   -3.9500    0.0000 C   0  0  0  0  0  0  0  0  0  0  0  0
   12.9792   -3.2292    0.0000 C   0  0  0  0  0  0  0  0  0  0  0  0
    8.2542   -2.7167    0.0000 C   0  0  0  0  0  0  0  0  0  0  0  0
   -0.0833   -2.6417    0.0000 C   0  0  0  0  0  0  0  0  0  0  0  0
    9.9875   -7.4292    0.0000 C   0  0  0  0  0  0  0  0  0  0  0  0
    9.2667   -7.8417    0.0000 C   0  0  0  0  0  0  0  0  0  0  0  0
    8.6625   -2.0042    0.0000 C   0  0  0  0  0  0  0  0  0  0  0  0
   13.8042   -3.2292    0.0000 C   0  0  0  0  0  0  0  0  0  0  0  0
   -0.7958   -3.0500    0.0000 C   0  0  0  0  0  0  0  0  0  0  0  0
  2 18  1  0
  3  2  1  0
  4  5  2  0
  5  2  1  0
  6  3  2  0
  7  3  1  0
  8  1  1  0
  9  1  1  0
 10 14  1  0
 11  8  1  0
 12  6  1  0
 13  9  2  0
 14  7  2  0
 15 10  1  0
 16  1  2  0
 17  1  2  0
 18 25  1  0
 19 15  1  0
 20 13  1  0
 21 11  2  0
 22 19  2  0
 23 20  2  0
 24 20  1  0
 25 29  1  0
 26 11  1  0
 27  5  1  0
 28 23  1  0
 29 24  2  0
 30  9  1  0
 31 13  1  0
 32 14  1  0
 33 19  1  0
 34 26  1  0
 35 27  1  0
 36 33  1  0
 37 34  1  0
 38 37  1  0
 39 35  1  0
 40 36  1  0
 41 30  2  0
 42 41  1  0
 43 39  1  0
 44 38  1  0
 45 40  1  0
 42 31  2  0
 28 25  2  0
  6  4  1  0
 10 12  2  0
M  END
>  <From>  (1) 
www.bindingDB.org

>  <BindingDB Reactant_set_id>  (1) 
50467381

>  <Ligand InChI>  (1) 
InChI=1S/C34H43N5O5S/c1-5-8-15-31-36-29-22-28(37-32(40)16-9-6-2)24(4)35-33(29)39(31)23-25-17-19-26(20-18-25)27-13-11-12-14-30(27)45(42,43)38-34(41)44-21-10-7-3/h11-14,17-20,22H,5-10,15-16,21,23H2,1-4H3,(H,37,40)(H,38,41)

>  <Ligand InChI Key>  (1) 
WBIXDQUYJJTNNI-UHFFFAOYSA-N

>  <BindingDB MonomerID>  (1) 
50282277

>  <BindingDB Ligand Name>  (1) 
CHEMBL306407::Imidazo[4,5-b]pyridine derivative

>  <Target Name>  (1) 
Type-1 angiotensin II receptor

>  <Target Source Organism According to Curator or DataSource>  (1) 
Oryctolagus cuniculus

>  <Ki (nM)>  (1) 


>  <IC50 (nM)>  (1) 
 0.11

>  <Kd (nM)>  (1) 


>  <EC50 (nM)>  (1) 


>  <kon (M-1-s-1)>  (1) 


>  <koff (s-1)>  (1) 


>  <pH>  (1) 


>  <Temp C>  (1) 


>  <Curation/DataSource>  (1) 
ChEMBL

>  <Article DOI>  (1) 
10.1016/S0960-894X(01)81115-X

>  <BindingDB Entry DOI>  (1) 
10.7270/Q2G73DPF

>  <PMID>  (1) 


>  <PubChem AID>  (1) 


>  <Patent Number>  (1) 


>  <Authors>  (1) 
Mantlo, NB; Kim, D; Ondeyka, D; Chang, RS; Kivlighn, SD; Siegl, PK; Greenlee, WJ

>  <Institution>  (1) 
TBA

>  <Link to Ligand in BindingDB>  (1) 
http://www.bindingdb.org/bind/chemsearch/marvin/MolStructure.jsp?monomerid=50282277

>  <Link to Ligand-Target Pair in BindingDB>  (1) 
http://www.bindingdb.org/jsp/dbsearch/PrimarySearch_ki.jsp?energyterm=kJ/mole&tag=r21&monomerid=50282277&enzyme=Type-1+angiotensin+II+receptor&column=ki&startPg=0&Increment=50&submit=Search

>  <Ligand HET ID in PDB>  (1) 


>  <PDB ID(s) for Ligand-Target Complex>  (1) 


>  <PubChem CID of Ligand>  (1) 
9917295

>  <PubChem SID of Ligand>  (1) 
104123951

>  <ChEBI ID of Ligand>  (1) 


>  <ChEMBL ID of Ligand>  (1) 
CHEMBL306407

>  <DrugBank ID of Ligand>  (1) 


>  <IUPHAR_GRAC ID of Ligand>  (1) 


>  <KEGG ID of Ligand>  (1) 


>  <ZINC ID of Ligand>  (1) 
ZINC03980939

>  <Number of Protein Chains in Target (bigger than 1 implies a multichain complex)>  (1) 
1

>  <BindingDB Target Chain Sequence>  (1) 
MMLNSSTEDGIKRIQDDCPKAGRHNYIFVMIPTLYSIIFVVGIFGNSLAVIVIYFYMKLKTVASVFLLNLALADLCFLLTLPLWAVYTAMEYRWPFGNYLCKIASASVSFNLYASVFLLTCLSIDRYLAIVHPMKSRLRRTMLVAKVTCIIIWLLAGLASLPAIIHRNVFFIENTNITVCAFHYESQNSTLPIGLGLTKNILGFLFPFLIILTSYTLIWKALKKAYEIQKNKPRNDDIFKIIMAIVLFFFFSWVPHQIFTFLDVLIQLGVIHDCRIADIVDTAMPITICIAYFNNCLNPLFYGFLGKKFKKYFLQLLKYIPPKAKSHSNLSTKMSTLSYRPSDNVSSSSKKPVPCFEVE

>  <PDB ID(s) of Target Chain>  (1) 
6DO1,6OS0,6OS1,6OS2

>  <UniProt (SwissProt) Recommended Name of Target Chain>  (1) 
Type-1 angiotensin II receptor

>  <UniProt (SwissProt) Entry Name of Target Chain>  (1) 
AGTR1_RABIT

>  <UniProt (SwissProt) Primary ID of Target Chain>  (1) 
P34976

>  <UniProt (SwissProt) Secondary ID(s) of Target Chain>  (1) 


>  <UniProt (SwissProt) Alternative ID(s) of Target Chain>  (1) 


>  <UniProt (TrEMBL) Submitted Name of Target Chain>  (1) 


>  <UniProt (TrEMBL) Entry Name of Target Chain>  (1) 


>  <UniProt (TrEMBL) Primary ID of Target Chain>  (1) 


>  <UniProt (TrEMBL) Secondary ID(s) of Target Chain>  (1) 


>  <UniProt (TrEMBL) Alternative ID(s) of Target Chain>  (1) 


$$$$
