
     RDKit          2D

 36 40  0  0  0  0  0  0  0  0999 V2000
    2.0542   -1.6167    0.0000 N   0  0  0  0  0  0  0  0  0  0  0  0
    3.1417   -1.7292    0.0000 C   0  0  0  0  0  0  0  0  0  0  0  0
    2.6292   -1.4292    0.0000 C   0  0  0  0  0  0  0  0  0  0  0  0
    2.0542   -0.6500    0.0000 N   0  0  0  0  0  0  0  0  0  0  0  0
    1.7042   -1.1375    0.0000 C   0  0  0  0  0  0  0  0  0  0  0  0
    2.6250   -0.8292    0.0000 C   0  0  0  0  0  0  0  0  0  0  0  0
    4.4292   -3.7500    0.0000 C   0  0  0  0  0  0  0  0  0  0  0  0
    4.2917   -2.7875    0.0000 N   0  0  0  0  0  0  0  0  0  0  0  0
    4.0125   -3.3167    0.0000 N   0  0  0  0  0  0  0  0  0  0  0  0
    4.8792   -2.8875    0.0000 N   0  0  0  0  0  0  0  0  0  0  0  0
    4.9667   -3.4792    0.0000 N   0  0  0  0  0  0  0  0  0  0  0  0
    3.1500   -2.1625    0.0000 C   0  0  0  0  0  0  0  0  0  0  0  0
    4.2542   -4.3167    0.0000 C   0  0  0  0  0  0  0  0  0  0  0  0
    3.6667   -4.4417    0.0000 C   0  0  0  0  0  0  0  0  0  0  0  0
    2.0542   -2.6750    0.0000 C   0  0  0  0  0  0  0  0  0  0  0  0
    3.6667   -1.4292    0.0000 C   0  0  0  0  0  0  0  0  0  0  0  0
    3.1417   -0.5292    0.0000 C   0  0  0  0  0  0  0  0  0  0  0  0
    3.2667   -4.0042    0.0000 C   0  0  0  0  0  0  0  0  0  0  0  0
    2.6292   -2.4625    0.0000 O   0  0  0  0  0  0  0  0  0  0  0  0
    3.6667   -0.8292    0.0000 C   0  0  0  0  0  0  0  0  0  0  0  0
    2.6792   -4.1292    0.0000 C   0  0  0  0  0  0  0  0  0  0  0  0
    3.4417   -3.4292    0.0000 C   0  0  0  0  0  0  0  0  0  0  0  0
    2.4625   -3.1167    0.0000 C   0  0  0  0  0  0  0  0  0  0  0  0
    3.6667   -2.4625    0.0000 O   0  0  0  0  0  0  0  0  0  0  0  0
    1.1042   -1.1375    0.0000 C   0  0  0  0  0  0  0  0  0  0  0  0
    3.0417   -2.9917    0.0000 C   0  0  0  0  0  0  0  0  0  0  0  0
    2.2750   -3.6917    0.0000 C   0  0  0  0  0  0  0  0  0  0  0  0
    4.6542   -4.7625    0.0000 C   0  0  0  0  0  0  0  0  0  0  0  0
    3.4792   -5.0167    0.0000 C   0  0  0  0  0  0  0  0  0  0  0  0
    4.1792   -0.5250    0.0000 C   0  0  0  0  0  0  0  0  0  0  0  0
    4.0875   -2.0375    0.0000 C   0  0  0  0  0  0  0  0  0  0  0  0
    0.8042   -0.6167    0.0000 C   0  0  0  0  0  0  0  0  0  0  0  0
    0.2042   -0.6167    0.0000 C   0  0  0  0  0  0  0  0  0  0  0  0
    4.4750   -5.3375    0.0000 C   0  0  0  0  0  0  0  0  0  0  0  0
    3.8875   -5.4625    0.0000 C   0  0  0  0  0  0  0  0  0  0  0  0
   -0.1000   -0.1042    0.0000 C   0  0  0  0  0  0  0  0  0  0  0  0
  2  3  2  0
  3  1  1  0
  4  5  2  0
  5  1  1  0
  6  3  1  0
  7 13  1  0
  8  9  2  0
  9  7  1  0
 10 11  1  0
 11  7  2  0
 12  2  1  0
 13 14  1  0
 14 18  1  0
 15  1  1  0
 16  2  1  0
 17  6  2  0
 18 21  2  0
 19 12  2  0
 20 17  1  0
 21 27  1  0
 22 26  2  0
 23 15  1  0
 24 12  1  0
 25  5  1  0
 26 23  1  0
 27 23  2  0
 28 13  2  0
 29 14  2  0
 30 20  1  0
 31 24  1  0
 32 25  1  0
 33 32  1  0
 34 35  2  0
 35 29  1  0
 36 33  1  0
  6  4  1  0
 22 18  1  0
 16 20  2  0
 28 34  1  0
 10  8  1  0
M  END
>  <From>  (1) 
www.bindingDB.org

>  <BindingDB Reactant_set_id>  (1) 
51185848

>  <Ligand InChI>  (1) 
InChI=1S/C28H28N6O2/c1-4-5-10-25-29-24-16-18(2)15-23(28(35)36-3)26(24)34(25)17-19-11-13-20(14-12-19)21-8-6-7-9-22(21)27-30-32-33-31-27/h6-9,11-16H,4-5,10,17H2,1-3H3,(H,30,31,32,33)

>  <Ligand InChI Key>  (1) 
CCTCSCYEMGZZSH-UHFFFAOYSA-N

>  <BindingDB MonomerID>  (1) 
50487613

>  <BindingDB Ligand Name>  (1) 
CHEMBL54194

>  <Target Name>  (1) 
Type-1 angiotensin II receptor

>  <Target Source Organism According to Curator or DataSource>  (1) 
Bos taurus

>  <Ki (nM)>  (1) 


>  <IC50 (nM)>  (1) 
 869

>  <Kd (nM)>  (1) 


>  <EC50 (nM)>  (1) 


>  <kon (M-1-s-1)>  (1) 


>  <koff (s-1)>  (1) 


>  <pH>  (1) 


>  <Temp C>  (1) 


>  <Curation/DataSource>  (1) 
ChEMBL

>  <Article DOI>  (1) 
10.1007/s00044-009-9182-z

>  <BindingDB Entry DOI>  (1) 
10.7270/Q2RN3BR4

>  <PMID>  (1) 


>  <PubChem AID>  (1) 


>  <Patent Number>  (1) 


>  <Authors>  (1) 
n/a

>  <Institution>  (1) 
n/a

>  <Link to Ligand in BindingDB>  (1) 
http://www.bindingdb.org/bind/chemsearch/marvin/MolStructure.jsp?monomerid=50487613

>  <Link to Ligand-Target Pair in BindingDB>  (1) 
http://www.bindingdb.org/jsp/dbsearch/PrimarySearch_ki.jsp?energyterm=kJ/mole&tag=r21&monomerid=50487613&enzyme=Type-1+angiotensin+II+receptor&column=ki&startPg=0&Increment=50&submit=Search

>  <Ligand HET ID in PDB>  (1) 


>  <PDB ID(s) for Ligand-Target Complex>  (1) 


>  <PubChem CID of Ligand>  (1) 
19792197

>  <PubChem SID of Ligand>  (1) 
433954878

>  <ChEBI ID of Ligand>  (1) 


>  <ChEMBL ID of Ligand>  (1) 


>  <DrugBank ID of Ligand>  (1) 


>  <IUPHAR_GRAC ID of Ligand>  (1) 


>  <KEGG ID of Ligand>  (1) 


>  <ZINC ID of Ligand>  (1) 


>  <Number of Protein Chains in Target (bigger than 1 implies a multichain complex)>  (1) 
1

>  <BindingDB Target Chain Sequence>  (1) 
MILNSSTEDGIKRIQDDCPKAGRHNYIFIMIPTLYSIIFVVGIFGNSLVVIVIYFYMKLKTVASVFLLNLALADLCFLLTLPLWAVYTAMEYRWPFGNYLCKIASASVSFNLYASVFLLTCLSIDRYLAIVHPMKSRLRRTMLVAKVTCIIIWLLAGLASLPTIIHRNVFFIENTNITVCAFHYESQNSTLPVGLGLTKNILGFLFPFLIILTSYTLIWKTLKKAYEIQKNKPRKDDIFKIILAIVLFFFFSWVPHQIFTFMDVLIQLGLIRDCKIEDIVDTAMPITICLAYFNNCLNPLFYGFLGKKFKKYFLQLLKYIPPKAKSHSNLSTKMSTLSYRPSENGNSSTKKPAPCIEVE

>  <PDB ID(s) of Target Chain>  (1) 


>  <UniProt (SwissProt) Recommended Name of Target Chain>  (1) 
Type-1 angiotensin II receptor

>  <UniProt (SwissProt) Entry Name of Target Chain>  (1) 
AGTR1_BOVIN

>  <UniProt (SwissProt) Primary ID of Target Chain>  (1) 
P25104

>  <UniProt (SwissProt) Secondary ID(s) of Target Chain>  (1) 


>  <UniProt (SwissProt) Alternative ID(s) of Target Chain>  (1) 


>  <UniProt (TrEMBL) Submitted Name of Target Chain>  (1) 


>  <UniProt (TrEMBL) Entry Name of Target Chain>  (1) 


>  <UniProt (TrEMBL) Primary ID of Target Chain>  (1) 


>  <UniProt (TrEMBL) Secondary ID(s) of Target Chain>  (1) 


>  <UniProt (TrEMBL) Alternative ID(s) of Target Chain>  (1) 


$$$$
