
     RDKit          2D

 38 41  0  0  0  0  0  0  0  0999 V2000
   11.1694    0.3792    0.0000 N   0  0  0  0  0  0  0  0  0  0  0  0
   11.1682   -0.4482    0.0000 C   0  0  0  0  0  0  0  0  0  0  0  0
   11.8831   -0.8610    0.0000 N   0  0  0  0  0  0  0  0  0  0  0  0
   12.5995   -0.4477    0.0000 C   0  0  0  0  0  0  0  0  0  0  0  0
   12.5966    0.3828    0.0000 C   0  0  0  0  0  0  0  0  0  0  0  0
   11.8813    0.7920    0.0000 C   0  0  0  0  0  0  0  0  0  0  0  0
   11.8829   -1.6860    0.0000 C   0  0  0  0  0  0  0  0  0  0  0  0
   12.5972   -2.0987    0.0000 C   0  0  0  0  0  0  0  0  0  0  0  0
   12.5929   -2.9219    0.0000 C   0  0  0  0  0  0  0  0  0  0  0  0
   13.3064   -3.3345    0.0000 C   0  0  0  0  0  0  0  0  0  0  0  0
   14.0219   -2.9221    0.0000 C   0  0  0  0  0  0  0  0  0  0  0  0
   14.0195   -2.0929    0.0000 C   0  0  0  0  0  0  0  0  0  0  0  0
   13.3054   -1.6840    0.0000 C   0  0  0  0  0  0  0  0  0  0  0  0
   14.7361   -3.3333    0.0000 C   0  0  0  0  0  0  0  0  0  0  0  0
   14.7357   -4.1591    0.0000 C   0  0  0  0  0  0  0  0  0  0  0  0
   15.4497   -4.5711    0.0000 C   0  0  0  0  0  0  0  0  0  0  0  0
   16.1647   -4.1577    0.0000 C   0  0  0  0  0  0  0  0  0  0  0  0
   16.1611   -3.3285    0.0000 C   0  0  0  0  0  0  0  0  0  0  0  0
   15.4465   -2.9206    0.0000 C   0  0  0  0  0  0  0  0  0  0  0  0
   14.0844   -4.6675    0.0000 C   0  0  0  0  0  0  0  0  0  0  0  0
   13.2916   -4.4392    0.0000 N   0  0  0  0  0  0  0  0  0  0  0  0
   12.8296   -5.1228    0.0000 N   0  0  0  0  0  0  0  0  0  0  0  0
   13.3369   -5.7734    0.0000 N   0  0  0  0  0  0  0  0  0  0  0  0
   14.1124   -5.4920    0.0000 N   0  0  0  0  0  0  0  0  0  0  0  0
   13.3146   -0.8591    0.0000 O   0  0  0  0  0  0  0  0  0  0  0  0
   10.4534   -0.8601    0.0000 C   0  0  0  0  0  0  0  0  0  0  0  0
    9.7393   -0.4470    0.0000 C   0  0  0  0  0  0  0  0  0  0  0  0
    9.0245   -0.8590    0.0000 C   0  0  0  0  0  0  0  0  0  0  0  0
    8.3104   -0.4459    0.0000 C   0  0  0  0  0  0  0  0  0  0  0  0
   11.8788    1.6170    0.0000 C   0  0  0  0  0  0  0  0  0  0  0  0
   13.3096    0.7980    0.0000 C   0  0  0  0  0  0  0  0  0  0  0  0
   14.0256    0.3882    0.0000 C   0  0  0  0  0  0  0  0  0  0  0  0
   14.7385    0.8034    0.0000 N   0  0  0  0  0  0  0  0  0  0  0  0
   14.0287   -0.4368    0.0000 O   0  0  0  0  0  0  0  0  0  0  0  0
   14.7354    1.6284    0.0000 C   0  0  0  0  0  0  0  0  0  0  0  0
   15.4545    0.3936    0.0000 C   0  0  0  0  0  0  0  0  0  0  0  0
   15.4483    2.0436    0.0000 C   0  0  0  0  0  0  0  0  0  0  0  0
   16.1674    0.8088    0.0000 C   0  0  0  0  0  0  0  0  0  0  0  0
 18 19  1  0
 19 14  2  0
 11 14  1  0
 23 24  1  0
  4  5  1  0
  9 10  2  0
 21 22  1  0
  2  3  1  0
 10 11  1  0
  5  6  2  0
 20 21  2  0
 22 23  2  0
 24 20  1  0
 15 20  1  0
 11 12  2  0
  4 25  2  0
  6  1  1  0
  2 26  1  0
 12 13  1  0
 26 27  1  0
 13  8  2  0
 27 28  1  0
  1  2  2  0
 28 29  1  0
  3  7  1  0
  6 30  1  0
 14 15  1  0
  5 31  1  0
  3  4  1  0
 31 32  1  0
 15 16  2  0
 32 33  1  0
  7  8  1  0
 32 34  2  0
 16 17  1  0
 33 35  1  0
 33 36  1  0
 17 18  2  0
 35 37  1  0
  8  9  1  0
 36 38  1  0
M  END
>  <From>  (1) 
www.bindingDB.org

>  <BindingDB Reactant_set_id>  (1) 
50718751

>  <Ligand InChI>  (1) 
InChI=1S/C29H35N7O2/c1-5-8-13-26-30-20(4)25(18-27(37)35(6-2)7-3)29(38)36(26)19-21-14-16-22(17-15-21)23-11-9-10-12-24(23)28-31-33-34-32-28/h9-12,14-17H,5-8,13,18-19H2,1-4H3,(H,31,32,33,34)

>  <Ligand InChI Key>  (1) 
RWHILJQTSSZOLR-UHFFFAOYSA-N

>  <BindingDB MonomerID>  (1) 
50364578

>  <BindingDB Ligand Name>  (1) 
CHEMBL1951127

>  <Target Name>  (1) 
Type-1 angiotensin II receptor

>  <Target Source Organism According to Curator or DataSource>  (1) 
Oryctolagus cuniculus

>  <Ki (nM)>  (1) 


>  <IC50 (nM)>  (1) 
 30.77

>  <Kd (nM)>  (1) 


>  <EC50 (nM)>  (1) 


>  <kon (M-1-s-1)>  (1) 


>  <koff (s-1)>  (1) 


>  <pH>  (1) 


>  <Temp C>  (1) 


>  <Curation/DataSource>  (1) 
ChEMBL

>  <Article DOI>  (1) 
10.1016/j.bmcl.2011.12.116

>  <BindingDB Entry DOI>  (1) 
10.7270/Q22R3S48

>  <PMID>  (1) 
22264484

>  <PubChem AID>  (1) 


>  <Patent Number>  (1) 


>  <Authors>  (1) 
Kim, TW; Yoo, BW; Lee, JK; Kim, JH; Lee, KT; Chi, YH; Lee, JY

>  <Institution>  (1) 
Kyung Hee University

>  <Link to Ligand in BindingDB>  (1) 
http://www.bindingdb.org/bind/chemsearch/marvin/MolStructure.jsp?monomerid=50364578

>  <Link to Ligand-Target Pair in BindingDB>  (1) 
http://www.bindingdb.org/jsp/dbsearch/PrimarySearch_ki.jsp?energyterm=kJ/mole&tag=r21&monomerid=50364578&enzyme=Type-1+angiotensin+II+receptor&column=ki&startPg=0&Increment=50&submit=Search

>  <Ligand HET ID in PDB>  (1) 


>  <PDB ID(s) for Ligand-Target Complex>  (1) 


>  <PubChem CID of Ligand>  (1) 
57396698

>  <PubChem SID of Ligand>  (1) 
136968640

>  <ChEBI ID of Ligand>  (1) 


>  <ChEMBL ID of Ligand>  (1) 
CHEMBL1951127

>  <DrugBank ID of Ligand>  (1) 


>  <IUPHAR_GRAC ID of Ligand>  (1) 


>  <KEGG ID of Ligand>  (1) 


>  <ZINC ID of Ligand>  (1) 
ZINC82156430

>  <Number of Protein Chains in Target (bigger than 1 implies a multichain complex)>  (1) 
1

>  <BindingDB Target Chain Sequence>  (1) 
MMLNSSTEDGIKRIQDDCPKAGRHNYIFVMIPTLYSIIFVVGIFGNSLAVIVIYFYMKLKTVASVFLLNLALADLCFLLTLPLWAVYTAMEYRWPFGNYLCKIASASVSFNLYASVFLLTCLSIDRYLAIVHPMKSRLRRTMLVAKVTCIIIWLLAGLASLPAIIHRNVFFIENTNITVCAFHYESQNSTLPIGLGLTKNILGFLFPFLIILTSYTLIWKALKKAYEIQKNKPRNDDIFKIIMAIVLFFFFSWVPHQIFTFLDVLIQLGVIHDCRIADIVDTAMPITICIAYFNNCLNPLFYGFLGKKFKKYFLQLLKYIPPKAKSHSNLSTKMSTLSYRPSDNVSSSSKKPVPCFEVE

>  <PDB ID(s) of Target Chain>  (1) 
6DO1,6OS0,6OS1,6OS2

>  <UniProt (SwissProt) Recommended Name of Target Chain>  (1) 
Type-1 angiotensin II receptor

>  <UniProt (SwissProt) Entry Name of Target Chain>  (1) 
AGTR1_RABIT

>  <UniProt (SwissProt) Primary ID of Target Chain>  (1) 
P34976

>  <UniProt (SwissProt) Secondary ID(s) of Target Chain>  (1) 


>  <UniProt (SwissProt) Alternative ID(s) of Target Chain>  (1) 


>  <UniProt (TrEMBL) Submitted Name of Target Chain>  (1) 


>  <UniProt (TrEMBL) Entry Name of Target Chain>  (1) 


>  <UniProt (TrEMBL) Primary ID of Target Chain>  (1) 


>  <UniProt (TrEMBL) Secondary ID(s) of Target Chain>  (1) 


>  <UniProt (TrEMBL) Alternative ID(s) of Target Chain>  (1) 


$$$$
