
     RDKit          2D

 35 39  0  0  0  0  0  0  0  0999 V2000
   -2.1078    0.6988    0.0000 C   0  0  0  0  0  0  0  0  0  0  0  0
    2.2225   -0.9681    0.0000 C   0  0  0  0  0  0  0  0  0  0  0  0
    2.4287    0.5269    0.0000 N   0  0  0  0  0  0  0  0  0  0  0  0
    1.8730   -0.2120    0.0000 N   0  0  0  0  0  0  0  0  0  0  0  0
    3.2020   -0.0573    0.0000 N   0  0  0  0  0  0  0  0  0  0  0  0
   -2.7494    0.1832    0.0000 C   0  0  0  0  0  0  0  0  0  0  0  0
   -2.2167    1.5064    0.0000 C   0  0  0  0  0  0  0  0  0  0  0  0
    3.0415   -0.8650    0.0000 N   0  0  0  0  0  0  0  0  0  0  0  0
   -1.2830    0.6988    0.0000 C   0  0  0  0  0  0  0  0  0  0  0  0
   -2.9842    1.8215    0.0000 N   0  0  0  0  0  0  0  0  0  0  0  0
    1.8101   -1.6840    0.0000 C   0  0  0  0  0  0  0  0  0  0  0  0
    1.0998   -2.0850    0.0000 C   0  0  0  0  0  0  0  0  0  0  0  0
   -3.5169    0.4926    0.0000 C   0  0  0  0  0  0  0  0  0  0  0  0
   -2.5374   -0.6186    0.0000 O   0  0  0  0  0  0  0  0  0  0  0  0
   -3.6372    1.3174    0.0000 C   0  0  0  0  0  0  0  0  0  0  0  0
    0.3838   -1.6668    0.0000 C   0  0  0  0  0  0  0  0  0  0  0  0
   -0.8706   -0.0172    0.0000 O   0  0  0  0  0  0  0  0  0  0  0  0
   -0.8706    1.4091    0.0000 C   0  0  0  0  0  0  0  0  0  0  0  0
    0.4010   -0.8420    0.0000 C   0  0  0  0  0  0  0  0  0  0  0  0
   -0.3265   -2.0678    0.0000 C   0  0  0  0  0  0  0  0  0  0  0  0
   -1.7298   -0.4010    0.0000 C   0  0  0  0  0  0  0  0  0  0  0  0
   -1.0253   -0.8248    0.0000 C   0  0  0  0  0  0  0  0  0  0  0  0
   -0.3093   -0.4182    0.0000 C   0  0  0  0  0  0  0  0  0  0  0  0
   -1.0424   -1.6496    0.0000 C   0  0  0  0  0  0  0  0  0  0  0  0
   -1.5751    2.0219    0.0000 C   0  0  0  0  0  0  0  0  0  0  0  0
    2.5260   -2.1022    0.0000 C   0  0  0  0  0  0  0  0  0  0  0  0
    1.0884   -2.9098    0.0000 C   0  0  0  0  0  0  0  0  0  0  0  0
   -4.3990    1.6267    0.0000 C   0  0  0  0  0  0  0  0  0  0  0  0
   -0.0458    1.4091    0.0000 C   0  0  0  0  0  0  0  0  0  0  0  0
   -1.2830    2.1250    0.0000 C   0  0  0  0  0  0  0  0  0  0  0  0
    2.5146   -2.9270    0.0000 C   0  0  0  0  0  0  0  0  0  0  0  0
    1.7929   -3.3337    0.0000 C   0  0  0  0  0  0  0  0  0  0  0  0
   -0.8878    2.8353    0.0000 C   0  0  0  0  0  0  0  0  0  0  0  0
    0.3666    2.1250    0.0000 C   0  0  0  0  0  0  0  0  0  0  0  0
   -0.0516    2.8467    0.0000 C   0  0  0  0  0  0  0  0  0  0  0  0
  2 11  1  0
  3  4  1  0
  4  2  2  0
  5  8  1  0
  6  1  1  0
  7  1  2  0
  8  2  1  0
  9  1  1  0
 10  7  1  0
 11 12  1  0
 12 16  1  0
 13  6  2  0
 14  6  1  0
 15 10  2  0
 16 20  2  0
 17  9  2  0
 18  9  1  0
 19 23  2  0
 20 24  1  0
 21 14  1  0
 22 21  1  0
 23 22  1  0
 24 22  2  0
 25  7  1  0
 26 11  2  0
 27 12  2  0
 28 15  1  0
 29 18  2  0
 30 18  1  0
 31 32  2  0
 32 27  1  0
 33 30  2  0
 34 29  1  0
 35 33  1  0
 15 13  1  0
 35 34  2  0
 16 19  1  0
 26 31  1  0
  3  5  2  0
M  END
>  <From>  (1) 
www.bindingDB.org

>  <BindingDB Reactant_set_id>  (1) 
50035257

>  <Ligand InChI>  (1) 
InChI=1S/C28H23N5O2/c1-18-16-25(26(19(2)29-18)27(34)22-8-4-3-5-9-22)35-17-20-12-14-21(15-13-20)23-10-6-7-11-24(23)28-30-32-33-31-28/h3-16H,17H2,1-2H3,(H,30,31,32,33)

>  <Ligand InChI Key>  (1) 
DFTSRMZKJQYQHV-UHFFFAOYSA-N

>  <BindingDB MonomerID>  (1) 
50047130

>  <BindingDB Ligand Name>  (1) 
CHEMBL280189::{2,6-Dimethyl-4-[2'-(1H-tetrazol-5-yl)-biphenyl-4-ylmethoxy]-pyridin-3-yl}-phenyl-methanone

>  <Target Name>  (1) 
Type-1 angiotensin II receptor

>  <Target Source Organism According to Curator or DataSource>  (1) 
Cavia porcellus

>  <Ki (nM)>  (1) 


>  <IC50 (nM)>  (1) 
 6

>  <Kd (nM)>  (1) 


>  <EC50 (nM)>  (1) 


>  <kon (M-1-s-1)>  (1) 


>  <koff (s-1)>  (1) 


>  <pH>  (1) 


>  <Temp C>  (1) 


>  <Curation/DataSource>  (1) 
ChEMBL

>  <Article DOI>  (1) 
10.1021/jm00061a016

>  <BindingDB Entry DOI>  (1) 
10.7270/Q2GM86CM

>  <PMID>  (1) 
8487261

>  <PubChem AID>  (1) 


>  <Patent Number>  (1) 


>  <Authors>  (1) 
Bradbury, RH; Allott, CP; Dennis, M; Girdwood, JA; Kenny, PW; Major, JS; Oldham, AA; Ratcliffe, AH; Rivett, JE; Roberts, DA

>  <Institution>  (1) 
Zeneca Pharmaceuticals

>  <Link to Ligand in BindingDB>  (1) 
http://www.bindingdb.org/bind/chemsearch/marvin/MolStructure.jsp?monomerid=50047130

>  <Link to Ligand-Target Pair in BindingDB>  (1) 
http://www.bindingdb.org/jsp/dbsearch/PrimarySearch_ki.jsp?energyterm=kJ/mole&tag=r21&monomerid=50047130&enzyme=Type-1+angiotensin+II+receptor&column=ki&startPg=0&Increment=50&submit=Search

>  <Ligand HET ID in PDB>  (1) 


>  <PDB ID(s) for Ligand-Target Complex>  (1) 


>  <PubChem CID of Ligand>  (1) 
14950498

>  <PubChem SID of Ligand>  (1) 
103977818

>  <ChEBI ID of Ligand>  (1) 


>  <ChEMBL ID of Ligand>  (1) 
CHEMBL280189

>  <DrugBank ID of Ligand>  (1) 


>  <IUPHAR_GRAC ID of Ligand>  (1) 


>  <KEGG ID of Ligand>  (1) 


>  <ZINC ID of Ligand>  (1) 
ZINC03779473

>  <Number of Protein Chains in Target (bigger than 1 implies a multichain complex)>  (1) 
1

>  <BindingDB Target Chain Sequence>  (1) 
MILNSSTEDGIKRIQDDCPKAGRHSYIFVMIPTLYSIIFVVGIFGNSLVVIVIYFYMKLKTVASVFLLNLALADICFLLTLPLWAVYTAMEYRWPFGNYLCKIASASVSFNLYASVFLLTCLSIDRYLAIVHPMKSRLRRTMLVAKVTCVIIWLMAGLASLPAVIHRNVFFIENTNITVCAFHYESQNSTLPIGLGLTKNILGFMFPFLIILTSYTLIWKALKKAYEIQKNKPRNDDIFKIIMAIVLFFFFSWVPHQIFTFLDVLIQLGIIHDCKISDIVDTAMPITICIAYFNNCLNPLFYGFLGKKFKKYFLQLLKYIPPKAKSHSTLSTKMSTLSYRPSDNVSSSAKKPVQCFEVE

>  <PDB ID(s) of Target Chain>  (1) 
4ZUD

>  <UniProt (SwissProt) Recommended Name of Target Chain>  (1) 
Type-1 angiotensin II receptor

>  <UniProt (SwissProt) Entry Name of Target Chain>  (1) 
AGTR1_CAVPO

>  <UniProt (SwissProt) Primary ID of Target Chain>  (1) 
Q9WV26

>  <UniProt (SwissProt) Secondary ID(s) of Target Chain>  (1) 


>  <UniProt (SwissProt) Alternative ID(s) of Target Chain>  (1) 


>  <UniProt (TrEMBL) Submitted Name of Target Chain>  (1) 


>  <UniProt (TrEMBL) Entry Name of Target Chain>  (1) 


>  <UniProt (TrEMBL) Primary ID of Target Chain>  (1) 


>  <UniProt (TrEMBL) Secondary ID(s) of Target Chain>  (1) 


>  <UniProt (TrEMBL) Alternative ID(s) of Target Chain>  (1) 


$$$$
