
     RDKit          2D

 35 37  0  0  0  0  0  0  0  0999 V2000
    3.5167   -3.4292    0.0000 N   0  0  0  0  0  0  0  0  0  0  0  0
    3.0292   -3.7792    0.0000 C   0  0  0  0  0  0  0  0  0  0  0  0
    2.7292   -2.8542    0.0000 C   0  0  0  0  0  0  0  0  0  0  0  0
    3.3292   -2.8542    0.0000 C   0  0  0  0  0  0  0  0  0  0  0  0
    2.5417   -3.4292    0.0000 N   0  0  0  0  0  0  0  0  0  0  0  0
    2.3792   -2.3667    0.0000 C   0  0  0  0  0  0  0  0  0  0  0  0
    1.3792   -1.9792    0.0000 N   0  0  0  0  0  0  0  0  0  0  0  0
    1.7792   -2.4292    0.0000 C   0  0  0  0  0  0  0  0  0  0  0  0
    0.8250   -2.7792    0.0000 N   0  0  0  0  0  0  0  0  0  0  0  0
    0.8292   -2.2292    0.0000 C   0  0  0  0  0  0  0  0  0  0  0  0
    1.4792   -2.9500    0.0000 C   0  0  0  0  0  0  0  0  0  0  0  0
    3.7792   -0.6542    0.0000 C   0  0  0  0  0  0  0  0  0  0  0  0
    2.9917   -4.1792    0.0000 O   0  0  0  0  0  0  0  0  0  0  0  0
    1.5042   -1.3917    0.0000 C   0  0  0  0  0  0  0  0  0  0  0  0
    3.6792   -2.3667    0.0000 O   0  0  0  0  0  0  0  0  0  0  0  0
    3.2042   -0.8000    0.0000 C   0  0  0  0  0  0  0  0  0  0  0  0
    3.9542   -0.0792    0.0000 O   0  0  0  0  0  0  0  0  0  0  0  0
    4.0875   -3.6125    0.0000 C   0  0  0  0  0  0  0  0  0  0  0  0
    2.7792   -0.3875    0.0000 C   0  0  0  0  0  0  0  0  0  0  0  0
    3.0917   -1.4292    0.0000 C   0  0  0  0  0  0  0  0  0  0  0  0
    1.9750   -3.6125    0.0000 C   0  0  0  0  0  0  0  0  0  0  0  0
    2.0667   -1.2125    0.0000 C   0  0  0  0  0  0  0  0  0  0  0  0
    4.2000   -1.0917    0.0000 O   0  0  0  0  0  0  0  0  0  0  0  0
    2.1917   -0.6292    0.0000 C   0  0  0  0  0  0  0  0  0  0  0  0
    2.5167   -1.6167    0.0000 C   0  0  0  0  0  0  0  0  0  0  0  0
    0.3125   -1.9292    0.0000 C   0  0  0  0  0  0  0  0  0  0  0  0
    4.2125   -4.1917    0.0000 C   0  0  0  0  0  0  0  0  0  0  0  0
    1.8250   -4.2042    0.0000 C   0  0  0  0  0  0  0  0  0  0  0  0
   -0.2083   -2.2292    0.0000 C   0  0  0  0  0  0  0  0  0  0  0  0
   -0.7333   -1.9292    0.0000 C   0  0  0  0  0  0  0  0  0  0  0  0
    4.7792   -4.3792    0.0000 C   0  0  0  0  0  0  0  0  0  0  0  0
    1.2500   -4.3667    0.0000 C   0  0  0  0  0  0  0  0  0  0  0  0
    4.9042   -4.9667    0.0000 C   0  0  0  0  0  0  0  0  0  0  0  0
   -1.2458   -2.2292    0.0000 C   0  0  0  0  0  0  0  0  0  0  0  0
    1.1000   -4.9500    0.0000 C   0  0  0  0  0  0  0  0  0  0  0  0
  2  1  1  0
  3  4  1  0
  4  1  1  0
  5  2  1  0
  6  3  2  0
  7  8  1  0
  8  6  1  0
  9 11  1  0
 10  7  1  0
 11  8  2  0
 12 16  1  0
 13  2  2  0
 14  7  1  0
 15  4  2  0
 16 20  2  0
 17 12  2  0
 18  1  1  0
 19 24  2  0
 20 25  1  0
 21  5  1  0
 22 14  1  0
 23 12  1  0
 24 22  1  0
 25 22  2  0
 26 10  1  0
 27 18  1  0
 28 21  1  0
 29 26  1  0
 30 29  1  0
 31 27  1  0
 32 28  1  0
 33 31  1  0
 34 30  1  0
 35 32  1  0
  5  3  1  0
 10  9  2  0
 19 16  1  0
M  END
>  <From>  (1) 
www.bindingDB.org

>  <BindingDB Reactant_set_id>  (1) 
51186056

>  <Ligand InChI>  (1) 
InChI=1S/C27H36N4O4/c1-4-7-10-24-28-18-22(31(24)19-20-11-13-21(14-12-20)26(33)34)17-23-25(32)30(16-9-6-3)27(35)29(23)15-8-5-2/h11-14,17-18H,4-10,15-16,19H2,1-3H3,(H,33,34)/b23-17-

>  <Ligand InChI Key>  (1) 
XYGCGZJECLFCKR-QJOMJCCJSA-N

>  <BindingDB MonomerID>  (1) 
50487674

>  <BindingDB Ligand Name>  (1) 
CHEMBL331042

>  <Target Name>  (1) 
Type-1 angiotensin II receptor

>  <Target Source Organism According to Curator or DataSource>  (1) 
Homo sapiens

>  <Ki (nM)>  (1) 


>  <IC50 (nM)>  (1) 
 1.3

>  <Kd (nM)>  (1) 


>  <EC50 (nM)>  (1) 


>  <kon (M-1-s-1)>  (1) 


>  <koff (s-1)>  (1) 


>  <pH>  (1) 


>  <Temp C>  (1) 


>  <Curation/DataSource>  (1) 
ChEMBL

>  <Article DOI>  (1) 
10.1007/s00044-009-9205-9

>  <BindingDB Entry DOI>  (1) 
10.7270/Q2CC13K2

>  <PMID>  (1) 


>  <PubChem AID>  (1) 


>  <Patent Number>  (1) 


>  <Authors>  (1) 
n/a

>  <Institution>  (1) 
n/a

>  <Link to Ligand in BindingDB>  (1) 
http://www.bindingdb.org/bind/chemsearch/marvin/MolStructure.jsp?monomerid=50487674

>  <Link to Ligand-Target Pair in BindingDB>  (1) 
http://www.bindingdb.org/jsp/dbsearch/PrimarySearch_ki.jsp?energyterm=kJ/mole&tag=r21&monomerid=50487674&enzyme=Type-1+angiotensin+II+receptor&column=ki&startPg=0&Increment=50&submit=Search

>  <Ligand HET ID in PDB>  (1) 


>  <PDB ID(s) for Ligand-Target Complex>  (1) 


>  <PubChem CID of Ligand>  (1) 
10254585

>  <PubChem SID of Ligand>  (1) 
433954939

>  <ChEBI ID of Ligand>  (1) 


>  <ChEMBL ID of Ligand>  (1) 


>  <DrugBank ID of Ligand>  (1) 


>  <IUPHAR_GRAC ID of Ligand>  (1) 


>  <KEGG ID of Ligand>  (1) 


>  <ZINC ID of Ligand>  (1) 


>  <Number of Protein Chains in Target (bigger than 1 implies a multichain complex)>  (1) 
1

>  <BindingDB Target Chain Sequence>  (1) 
MILNSSTEDGIKRIQDDCPKAGRHNYIFVMIPTLYSIIFVVGIFGNSLVVIVIYFYMKLKTVASVFLLNLALADLCFLLTLPLWAVYTAMEYRWPFGNYLCKIASASVSFNLYASVFLLTCLSIDRYLAIVHPMKSRLRRTMLVAKVTCIIIWLLAGLASLPAIIHRNVFFIENTNITVCAFHYESQNSTLPIGLGLTKNILGFLFPFLIILTSYTLIWKALKKAYEIQKNKPRNDDIFKIIMAIVLFFFFSWIPHQIFTFLDVLIQLGIIRDCRIADIVDTAMPITICIAYFNNCLNPLFYGFLGKKFKRYFLQLLKYIPPKAKSHSNLSTKMSTLSYRPSDNVSSSTKKPAPCFEVE

>  <PDB ID(s) of Target Chain>  (1) 
6DO1,6OS0,6OS1,6OS2

>  <UniProt (SwissProt) Recommended Name of Target Chain>  (1) 
Type-1 angiotensin II receptor

>  <UniProt (SwissProt) Entry Name of Target Chain>  (1) 
AGTR1_HUMAN

>  <UniProt (SwissProt) Primary ID of Target Chain>  (1) 
P30556

>  <UniProt (SwissProt) Secondary ID(s) of Target Chain>  (1) 
Q13725 Q8TBK4

>  <UniProt (SwissProt) Alternative ID(s) of Target Chain>  (1) 


>  <UniProt (TrEMBL) Submitted Name of Target Chain>  (1) 


>  <UniProt (TrEMBL) Entry Name of Target Chain>  (1) 


>  <UniProt (TrEMBL) Primary ID of Target Chain>  (1) 


>  <UniProt (TrEMBL) Secondary ID(s) of Target Chain>  (1) 


>  <UniProt (TrEMBL) Alternative ID(s) of Target Chain>  (1) 


$$$$
