
     RDKit          2D

 35 39  0  0  0  0  0  0  0  0999 V2000
    4.4972   -1.8655    0.0000 N   0  0  0  0  0  0  0  0  0  0  0  0
    4.0267   -3.1147    0.0000 N   0  0  0  0  0  0  0  0  0  0  0  0
    4.7137   -2.6650    0.0000 C   0  0  0  0  0  0  0  0  0  0  0  0
    3.6727   -1.8364    0.0000 N   0  0  0  0  0  0  0  0  0  0  0  0
    3.3771   -2.6026    0.0000 C   0  0  0  0  0  0  0  0  0  0  0  0
    7.5245   -4.5014    0.0000 C   0  0  0  0  0  0  0  0  0  0  0  0
    6.8749   -3.9892    0.0000 N   0  0  0  0  0  0  0  0  0  0  0  0
    7.1622   -3.2147    0.0000 N   0  0  0  0  0  0  0  0  0  0  0  0
    8.2116   -4.0475    0.0000 N   0  0  0  0  0  0  0  0  0  0  0  0
    5.0011   -1.2159    0.0000 C   0  0  0  0  0  0  0  0  0  0  0  0
    7.9867   -3.2522    0.0000 N   0  0  0  0  0  0  0  0  0  0  0  0
    7.4953   -5.3259    0.0000 C   0  0  0  0  0  0  0  0  0  0  0  0
    6.7625   -5.7089    0.0000 C   0  0  0  0  0  0  0  0  0  0  0  0
    3.9892   -3.9392    0.0000 C   0  0  0  0  0  0  0  0  0  0  0  0
    5.4883   -2.9524    0.0000 O   0  0  0  0  0  0  0  0  0  0  0  0
    6.0754   -5.2717    0.0000 C   0  0  0  0  0  0  0  0  0  0  0  0
    4.7013   -0.4539    0.0000 C   0  0  0  0  0  0  0  0  0  0  0  0
    6.1087   -4.4389    0.0000 C   0  0  0  0  0  0  0  0  0  0  0  0
    5.3384   -5.6507    0.0000 C   0  0  0  0  0  0  0  0  0  0  0  0
    4.6888   -4.3765    0.0000 C   0  0  0  0  0  0  0  0  0  0  0  0
    3.8768   -0.3415    0.0000 Cl  0  0  0  0  0  0  0  0  0  0  0  0
    2.5901   -2.8274    0.0000 C   0  0  0  0  0  0  0  0  0  0  0  0
    4.6471   -5.2092    0.0000 C   0  0  0  0  0  0  0  0  0  0  0  0
    5.4133   -4.0017    0.0000 C   0  0  0  0  0  0  0  0  0  0  0  0
    5.8214   -1.3409    0.0000 C   0  0  0  0  0  0  0  0  0  0  0  0
    8.1866   -5.7631    0.0000 C   0  0  0  0  0  0  0  0  0  0  0  0
    6.7250   -6.5376    0.0000 C   0  0  0  0  0  0  0  0  0  0  0  0
    5.2009    0.1874    0.0000 C   0  0  0  0  0  0  0  0  0  0  0  0
    1.9987   -2.2486    0.0000 C   0  0  0  0  0  0  0  0  0  0  0  0
    1.2034   -2.4652    0.0000 C   0  0  0  0  0  0  0  0  0  0  0  0
    6.3252   -0.6996    0.0000 C   0  0  0  0  0  0  0  0  0  0  0  0
    8.1574   -6.5959    0.0000 C   0  0  0  0  0  0  0  0  0  0  0  0
    7.4246   -6.9748    0.0000 C   0  0  0  0  0  0  0  0  0  0  0  0
    0.6163   -1.8905    0.0000 C   0  0  0  0  0  0  0  0  0  0  0  0
    6.0254    0.0708    0.0000 C   0  0  0  0  0  0  0  0  0  0  0  0
  2  3  1  0
  3  1  1  0
  4  1  1  0
  5  4  2  0
  6 12  1  0
  7  6  1  0
  8  7  1  0
  9  6  2  0
 10  1  1  0
 11  9  1  0
 12 13  1  0
 13 16  1  0
 14  2  1  0
 15  3  2  0
 16 18  2  0
 17 10  2  0
 18 24  1  0
 19 23  2  0
 20 14  1  0
 21 17  1  0
 22  5  1  0
 23 20  1  0
 24 20  2  0
 25 10  1  0
 26 12  2  0
 27 13  2  0
 28 17  1  0
 29 22  1  0
 30 29  1  0
 31 25  2  0
 32 33  2  0
 33 27  1  0
 34 30  1  0
 35 31  1  0
  2  5  1  0
 35 28  2  0
 16 19  1  0
 32 26  1  0
  8 11  2  0
M  END
>  <From>  (1) 
www.bindingDB.org

>  <BindingDB Reactant_set_id>  (1) 
50002537

>  <Ligand InChI>  (1) 
InChI=1S/C26H24ClN7O/c1-2-3-12-24-30-34(23-11-7-6-10-22(23)27)26(35)33(24)17-18-13-15-19(16-14-18)20-8-4-5-9-21(20)25-28-31-32-29-25/h4-11,13-16H,2-3,12,17H2,1H3,(H,28,29,31,32)

>  <Ligand InChI Key>  (1) 
SKDWAGZYKUIFNE-UHFFFAOYSA-N

>  <BindingDB MonomerID>  (1) 
50044505

>  <BindingDB Ligand Name>  (1) 
5-Butyl-2-(2-chloro-phenyl)-4-[2'-(2H-tetrazol-5-yl)-biphenyl-4-ylmethyl]-2,4-dihydro-[1,2,4]triazol-3-one::CHEMBL18287

>  <Target Name>  (1) 
Type-1 angiotensin II receptor

>  <Target Source Organism According to Curator or DataSource>  (1) 
Oryctolagus cuniculus

>  <Ki (nM)>  (1) 


>  <IC50 (nM)>  (1) 
 2.4

>  <Kd (nM)>  (1) 


>  <EC50 (nM)>  (1) 


>  <kon (M-1-s-1)>  (1) 


>  <koff (s-1)>  (1) 


>  <pH>  (1) 


>  <Temp C>  (1) 


>  <Curation/DataSource>  (1) 
ChEMBL

>  <Article DOI>  (1) 
10.1016/S0960-894X(01)81132-X

>  <BindingDB Entry DOI>  (1) 
10.7270/Q2057FT4

>  <PMID>  (1) 


>  <PubChem AID>  (1) 


>  <Patent Number>  (1) 


>  <Authors>  (1) 
Chang, LL; Ashton, WT; Flanagan, KL; Naylor, EM; Chakravarty, PK; Patchett, AA; Greenlee, WJ; Bendesky, RJ; Chen, TB; Faust, KA; Kling, PJ; Schaffer, LW; Schorn, TW; Zingaro, GJ; Chang, RS; Lotti, VJ; Kivlighn, SD; Siegl, PK

>  <Institution>  (1) 
TBA

>  <Link to Ligand in BindingDB>  (1) 
http://www.bindingdb.org/bind/chemsearch/marvin/MolStructure.jsp?monomerid=50044505

>  <Link to Ligand-Target Pair in BindingDB>  (1) 
http://www.bindingdb.org/jsp/dbsearch/PrimarySearch_ki.jsp?energyterm=kJ/mole&tag=r21&monomerid=50044505&enzyme=Type-1+angiotensin+II+receptor&column=ki&startPg=0&Increment=50&submit=Search

>  <Ligand HET ID in PDB>  (1) 


>  <PDB ID(s) for Ligand-Target Complex>  (1) 


>  <PubChem CID of Ligand>  (1) 
9935106

>  <PubChem SID of Ligand>  (1) 
103975743

>  <ChEBI ID of Ligand>  (1) 


>  <ChEMBL ID of Ligand>  (1) 
CHEMBL18287

>  <DrugBank ID of Ligand>  (1) 


>  <IUPHAR_GRAC ID of Ligand>  (1) 


>  <KEGG ID of Ligand>  (1) 


>  <ZINC ID of Ligand>  (1) 
ZINC01552274

>  <Number of Protein Chains in Target (bigger than 1 implies a multichain complex)>  (1) 
1

>  <BindingDB Target Chain Sequence>  (1) 
MMLNSSTEDGIKRIQDDCPKAGRHNYIFVMIPTLYSIIFVVGIFGNSLAVIVIYFYMKLKTVASVFLLNLALADLCFLLTLPLWAVYTAMEYRWPFGNYLCKIASASVSFNLYASVFLLTCLSIDRYLAIVHPMKSRLRRTMLVAKVTCIIIWLLAGLASLPAIIHRNVFFIENTNITVCAFHYESQNSTLPIGLGLTKNILGFLFPFLIILTSYTLIWKALKKAYEIQKNKPRNDDIFKIIMAIVLFFFFSWVPHQIFTFLDVLIQLGVIHDCRIADIVDTAMPITICIAYFNNCLNPLFYGFLGKKFKKYFLQLLKYIPPKAKSHSNLSTKMSTLSYRPSDNVSSSSKKPVPCFEVE

>  <PDB ID(s) of Target Chain>  (1) 
6DO1,6OS0,6OS1,6OS2

>  <UniProt (SwissProt) Recommended Name of Target Chain>  (1) 
Type-1 angiotensin II receptor

>  <UniProt (SwissProt) Entry Name of Target Chain>  (1) 
AGTR1_RABIT

>  <UniProt (SwissProt) Primary ID of Target Chain>  (1) 
P34976

>  <UniProt (SwissProt) Secondary ID(s) of Target Chain>  (1) 


>  <UniProt (SwissProt) Alternative ID(s) of Target Chain>  (1) 


>  <UniProt (TrEMBL) Submitted Name of Target Chain>  (1) 


>  <UniProt (TrEMBL) Entry Name of Target Chain>  (1) 


>  <UniProt (TrEMBL) Primary ID of Target Chain>  (1) 


>  <UniProt (TrEMBL) Secondary ID(s) of Target Chain>  (1) 


>  <UniProt (TrEMBL) Alternative ID(s) of Target Chain>  (1) 


$$$$
