
     RDKit          2D

 34 39  0  0  0  0  0  0  0  0999 V2000
    0.8484   -7.6070    0.0000 N   0  0  0  0  0  0  0  0  0  0  0  0
    0.5561   -6.3000    0.0000 N   0  0  0  0  0  0  0  0  0  0  0  0
    1.1752   -6.8445    0.0000 C   0  0  0  0  0  0  0  0  0  0  0  0
    0.0230   -7.5324    0.0000 C   0  0  0  0  0  0  0  0  0  0  0  0
   -0.1548   -6.7242    0.0000 N   0  0  0  0  0  0  0  0  0  0  0  0
    4.5459   -6.8331    0.0000 C   0  0  0  0  0  0  0  0  0  0  0  0
    3.7204   -6.7643    0.0000 N   0  0  0  0  0  0  0  0  0  0  0  0
    3.5312   -5.9675    0.0000 N   0  0  0  0  0  0  0  0  0  0  0  0
    4.8554   -6.0764    0.0000 N   0  0  0  0  0  0  0  0  0  0  0  0
    0.6249   -5.4745    0.0000 C   0  0  0  0  0  0  0  0  0  0  0  0
    4.2363   -5.5375    0.0000 N   0  0  0  0  0  0  0  0  0  0  0  0
   -0.5159   -8.1515    0.0000 C   0  0  0  0  0  0  0  0  0  0  0  0
    4.9758   -7.5382    0.0000 C   0  0  0  0  0  0  0  0  0  0  0  0
    4.5803   -8.2605    0.0000 C   0  0  0  0  0  0  0  0  0  0  0  0
    1.2784   -8.3121    0.0000 C   0  0  0  0  0  0  0  0  0  0  0  0
   -1.2898   -8.4153    0.0000 C   0  0  0  0  0  0  0  0  0  0  0  0
   -0.6707   -8.9598    0.0000 C   0  0  0  0  0  0  0  0  0  0  0  0
    1.9835   -6.6612    0.0000 O   0  0  0  0  0  0  0  0  0  0  0  0
    3.7548   -8.2777    0.0000 C   0  0  0  0  0  0  0  0  0  0  0  0
   -0.0458   -5.0102    0.0000 C   0  0  0  0  0  0  0  0  0  0  0  0
    3.3363   -7.5726    0.0000 C   0  0  0  0  0  0  0  0  0  0  0  0
    3.3593   -9.0000    0.0000 C   0  0  0  0  0  0  0  0  0  0  0  0
    2.1039   -8.3063    0.0000 C   0  0  0  0  0  0  0  0  0  0  0  0
   -0.7911   -5.3542    0.0000 Cl  0  0  0  0  0  0  0  0  0  0  0  0
    2.4994   -7.5840    0.0000 C   0  0  0  0  0  0  0  0  0  0  0  0
    2.5280   -9.0114    0.0000 C   0  0  0  0  0  0  0  0  0  0  0  0
    1.3816   -5.1306    0.0000 C   0  0  0  0  0  0  0  0  0  0  0  0
    5.8013   -7.5210    0.0000 C   0  0  0  0  0  0  0  0  0  0  0  0
    5.0044   -8.9656    0.0000 C   0  0  0  0  0  0  0  0  0  0  0  0
    0.0230   -4.1847    0.0000 C   0  0  0  0  0  0  0  0  0  0  0  0
    1.4504   -4.3165    0.0000 C   0  0  0  0  0  0  0  0  0  0  0  0
    6.2312   -8.2261    0.0000 C   0  0  0  0  0  0  0  0  0  0  0  0
    5.8299   -8.9484    0.0000 C   0  0  0  0  0  0  0  0  0  0  0  0
    0.7797   -3.8408    0.0000 C   0  0  0  0  0  0  0  0  0  0  0  0
  2  3  1  0
  3  1  1  0
  4  1  1  0
  5  4  2  0
  6 13  1  0
  7  6  1  0
  8  7  1  0
  9  6  2  0
 10  2  1  0
 11  9  1  0
 12  4  1  0
 13 14  1  0
 14 19  1  0
 15  1  1  0
 16 12  1  0
 17 12  1  0
 18  3  2  0
 19 22  2  0
 20 10  2  0
 21 25  2  0
 22 26  1  0
 23 15  1  0
 24 20  1  0
 25 23  1  0
 26 23  2  0
 27 10  1  0
 28 13  2  0
 29 14  2  0
 30 20  1  0
 31 27  2  0
 32 33  2  0
 33 29  1  0
 34 31  1  0
  5  2  1  0
 16 17  1  0
 21 19  1  0
 34 30  2  0
 28 32  1  0
  8 11  2  0
M  END
>  <From>  (1) 
www.bindingDB.org

>  <BindingDB Reactant_set_id>  (1) 
50060451

>  <Ligand InChI>  (1) 
InChI=1S/C25H20ClN7O/c26-21-7-3-4-8-22(21)33-25(34)32(24(29-33)18-13-14-18)15-16-9-11-17(12-10-16)19-5-1-2-6-20(19)23-27-30-31-28-23/h1-12,18H,13-15H2,(H,27,28,30,31)

>  <Ligand InChI Key>  (1) 
FGBWSBBWLBJRQT-UHFFFAOYSA-N

>  <BindingDB MonomerID>  (1) 
50044528

>  <BindingDB Ligand Name>  (1) 
2-(2-Chloro-phenyl)-5-cyclopropyl-4-[2'-(2H-tetrazol-5-yl)-biphenyl-4-ylmethyl]-2,4-dihydro-[1,2,4]triazol-3-one::CHEMBL87890

>  <Target Name>  (1) 
Type-1 angiotensin II receptor

>  <Target Source Organism According to Curator or DataSource>  (1) 
Oryctolagus cuniculus

>  <Ki (nM)>  (1) 


>  <IC50 (nM)>  (1) 
 250

>  <Kd (nM)>  (1) 


>  <EC50 (nM)>  (1) 


>  <kon (M-1-s-1)>  (1) 


>  <koff (s-1)>  (1) 


>  <pH>  (1) 


>  <Temp C>  (1) 


>  <Curation/DataSource>  (1) 
ChEMBL

>  <Article DOI>  (1) 
10.1021/jm00069a015

>  <BindingDB Entry DOI>  (1) 
10.7270/Q2KP817C

>  <PMID>  (1) 
8355255

>  <PubChem AID>  (1) 


>  <Patent Number>  (1) 


>  <Authors>  (1) 
Chang, LL; Ashton, WT; Flanagan, KL; Strelitz, RA; MacCoss, M; Greenlee, WJ; Chang, RS; Lotti, VJ; Faust, KA; Chen, TB

>  <Institution>  (1) 
Merck Research Laboratories

>  <Link to Ligand in BindingDB>  (1) 
http://www.bindingdb.org/bind/chemsearch/marvin/MolStructure.jsp?monomerid=50044528

>  <Link to Ligand-Target Pair in BindingDB>  (1) 
http://www.bindingdb.org/jsp/dbsearch/PrimarySearch_ki.jsp?energyterm=kJ/mole&tag=r21&monomerid=50044528&enzyme=Type-1+angiotensin+II+receptor&column=ki&startPg=0&Increment=50&submit=Search

>  <Ligand HET ID in PDB>  (1) 


>  <PDB ID(s) for Ligand-Target Complex>  (1) 


>  <PubChem CID of Ligand>  (1) 
14956765

>  <PubChem SID of Ligand>  (1) 
103975766

>  <ChEBI ID of Ligand>  (1) 


>  <ChEMBL ID of Ligand>  (1) 
CHEMBL87890

>  <DrugBank ID of Ligand>  (1) 


>  <IUPHAR_GRAC ID of Ligand>  (1) 


>  <KEGG ID of Ligand>  (1) 


>  <ZINC ID of Ligand>  (1) 
ZINC13832654

>  <Number of Protein Chains in Target (bigger than 1 implies a multichain complex)>  (1) 
1

>  <BindingDB Target Chain Sequence>  (1) 
MMLNSSTEDGIKRIQDDCPKAGRHNYIFVMIPTLYSIIFVVGIFGNSLAVIVIYFYMKLKTVASVFLLNLALADLCFLLTLPLWAVYTAMEYRWPFGNYLCKIASASVSFNLYASVFLLTCLSIDRYLAIVHPMKSRLRRTMLVAKVTCIIIWLLAGLASLPAIIHRNVFFIENTNITVCAFHYESQNSTLPIGLGLTKNILGFLFPFLIILTSYTLIWKALKKAYEIQKNKPRNDDIFKIIMAIVLFFFFSWVPHQIFTFLDVLIQLGVIHDCRIADIVDTAMPITICIAYFNNCLNPLFYGFLGKKFKKYFLQLLKYIPPKAKSHSNLSTKMSTLSYRPSDNVSSSSKKPVPCFEVE

>  <PDB ID(s) of Target Chain>  (1) 
6DO1,6OS0,6OS1,6OS2

>  <UniProt (SwissProt) Recommended Name of Target Chain>  (1) 
Type-1 angiotensin II receptor

>  <UniProt (SwissProt) Entry Name of Target Chain>  (1) 
AGTR1_RABIT

>  <UniProt (SwissProt) Primary ID of Target Chain>  (1) 
P34976

>  <UniProt (SwissProt) Secondary ID(s) of Target Chain>  (1) 


>  <UniProt (SwissProt) Alternative ID(s) of Target Chain>  (1) 


>  <UniProt (TrEMBL) Submitted Name of Target Chain>  (1) 


>  <UniProt (TrEMBL) Entry Name of Target Chain>  (1) 


>  <UniProt (TrEMBL) Primary ID of Target Chain>  (1) 


>  <UniProt (TrEMBL) Secondary ID(s) of Target Chain>  (1) 


>  <UniProt (TrEMBL) Alternative ID(s) of Target Chain>  (1) 


$$$$
