
     RDKit          2D

 44 50  0  0  0  0  0  0  0  0999 V2000
    3.6158   -3.3236    0.0000 N   0  0  0  0  0  0  0  0  0  0  0  0
    3.1273   -2.6555    0.0000 C   0  0  0  0  0  0  0  0  0  0  0  0
    6.5385   -4.3214    0.0000 N   0  0  0  0  0  0  0  0  0  0  0  0
    7.2483   -4.7390    0.0000 N   0  0  0  0  0  0  0  0  0  0  0  0
    3.6158   -1.9874    0.0000 N   0  0  0  0  0  0  0  0  0  0  0  0
    4.4008   -3.0731    0.0000 C   0  0  0  0  0  0  0  0  0  0  0  0
    4.3423   -7.5740    0.0000 C   0  0  0  0  0  0  0  0  0  0  0  0
    6.5510   -3.4864    0.0000 C   0  0  0  0  0  0  0  0  0  0  0  0
    3.7495   -7.0062    0.0000 N   0  0  0  0  0  0  0  0  0  0  0  0
    3.0145   -7.3861    0.0000 N   0  0  0  0  0  0  0  0  0  0  0  0
    7.2358   -5.5698    0.0000 C   0  0  0  0  0  0  0  0  0  0  0  0
    7.9623   -4.3382    0.0000 C   0  0  0  0  0  0  0  0  0  0  0  0
    3.9749   -8.3214    0.0000 N   0  0  0  0  0  0  0  0  0  0  0  0
    4.4049   -2.2505    0.0000 C   0  0  0  0  0  0  0  0  0  0  0  0
    3.1523   -8.2003    0.0000 N   0  0  0  0  0  0  0  0  0  0  0  0
    7.9372   -5.9957    0.0000 C   0  0  0  0  0  0  0  0  0  0  0  0
    2.3090   -2.6472    0.0000 C   0  0  0  0  0  0  0  0  0  0  0  0
    5.8329   -3.0731    0.0000 C   0  0  0  0  0  0  0  0  0  0  0  0
    5.1565   -7.4362    0.0000 C   0  0  0  0  0  0  0  0  0  0  0  0
    5.1189   -3.4864    0.0000 C   0  0  0  0  0  0  0  0  0  0  0  0
    5.4571   -6.6680    0.0000 C   0  0  0  0  0  0  0  0  0  0  0  0
    7.2733   -3.0856    0.0000 C   0  0  0  0  0  0  0  0  0  0  0  0
    7.9748   -3.5115    0.0000 C   0  0  0  0  0  0  0  0  0  0  0  0
    1.5991   -2.2379    0.0000 C   0  0  0  0  0  0  0  0  0  0  0  0
    1.5991   -3.0605    0.0000 C   0  0  0  0  0  0  0  0  0  0  0  0
    3.3527   -4.1085    0.0000 C   0  0  0  0  0  0  0  0  0  0  0  0
    7.9247   -6.8224    0.0000 N   0  0  0  0  0  0  0  0  0  0  0  0
    4.9394   -6.0208    0.0000 C   0  0  0  0  0  0  0  0  0  0  0  0
    8.6762   -4.7641    0.0000 O   0  0  0  0  0  0  0  0  0  0  0  0
    8.6637   -5.5949    0.0000 O   0  0  0  0  0  0  0  0  0  0  0  0
    5.1189   -1.8371    0.0000 C   0  0  0  0  0  0  0  0  0  0  0  0
    5.8329   -2.2505    0.0000 C   0  0  0  0  0  0  0  0  0  0  0  0
    5.2400   -5.2567    0.0000 C   0  0  0  0  0  0  0  0  0  0  0  0
    4.1168   -6.1460    0.0000 C   0  0  0  0  0  0  0  0  0  0  0  0
    3.9039   -4.7265    0.0000 C   0  0  0  0  0  0  0  0  0  0  0  0
    3.6033   -5.5031    0.0000 C   0  0  0  0  0  0  0  0  0  0  0  0
    4.7265   -4.6012    0.0000 C   0  0  0  0  0  0  0  0  0  0  0  0
    5.6700   -8.0834    0.0000 C   0  0  0  0  0  0  0  0  0  0  0  0
    6.2755   -6.5427    0.0000 C   0  0  0  0  0  0  0  0  0  0  0  0
    7.2776   -2.2630    0.0000 C   0  0  0  0  0  0  0  0  0  0  0  0
    8.6387   -7.2483    0.0000 C   0  0  0  0  0  0  0  0  0  0  0  0
    7.2107   -7.2232    0.0000 C   0  0  0  0  0  0  0  0  0  0  0  0
    6.4967   -7.9497    0.0000 C   0  0  0  0  0  0  0  0  0  0  0  0
    6.7890   -7.1857    0.0000 C   0  0  0  0  0  0  0  0  0  0  0  0
  2  1  1  0
  3  8  2  0
  4  3  1  0
  5  2  2  0
  6  1  1  0
  7 19  1  0
  8 18  1  0
  9  7  1  0
 10  9  2  0
 11  4  1  0
 12 23  1  0
 13  7  2  0
 14  6  2  0
 15 13  1  0
 16 11  1  0
 17  2  1  0
 18 20  2  0
 19 21  1  0
 20  6  1  0
 21 28  1  0
 22  8  1  0
 23 22  1  0
 24 17  1  0
 25 17  1  0
 26  1  1  0
 27 16  1  0
 28 33  2  0
 29 12  2  0
 30 16  2  0
 31 14  1  0
 32 18  1  0
 33 37  1  0
 34 36  2  0
 35 26  1  0
 36 35  1  0
 37 35  2  0
 38 19  2  0
 39 21  2  0
 40 22  1  0
 41 27  1  0
 42 27  1  0
 43 44  2  0
 44 39  1  0
  5 14  1  0
 25 24  1  0
 28 34  1  0
 31 32  2  0
  4 12  1  0
 38 43  1  0
 10 15  1  0
M  CHG  1  15  -1
M  END
>  <From>  (1) 
www.bindingDB.org

>  <BindingDB Reactant_set_id>  (1) 
50983605

>  <Ligand InChI>  (1) 
InChI=1S/C33H32N9O2/c1-20-16-29(43)42(19-30(44)40(2)3)37-31(20)24-14-15-27-28(17-24)41(33(34-27)23-12-13-23)18-21-8-10-22(11-9-21)25-6-4-5-7-26(25)32-35-38-39-36-32/h4-11,14-15,17,20,23H,12-13,16,18-19H2,1-3H3/q-1

>  <Ligand InChI Key>  (1) 
GJSKUQFXRROMKD-UHFFFAOYSA-N

>  <BindingDB MonomerID>  (1) 
50403242

>  <BindingDB Ligand Name>  (1) 
CHEMBL2079790

>  <Target Name>  (1) 
Type-1 angiotensin II receptor

>  <Target Source Organism According to Curator or DataSource>  (1) 
Oryctolagus cuniculus

>  <Ki (nM)>  (1) 


>  <IC50 (nM)>  (1) 
 2

>  <Kd (nM)>  (1) 


>  <EC50 (nM)>  (1) 


>  <kon (M-1-s-1)>  (1) 


>  <koff (s-1)>  (1) 


>  <pH>  (1) 


>  <Temp C>  (1) 


>  <Curation/DataSource>  (1) 
ChEMBL

>  <Article DOI>  (1) 
10.1016/S0960-894X(01)80348-6

>  <BindingDB Entry DOI>  (1) 
10.7270/Q2G44QRD

>  <PMID>  (1) 


>  <PubChem AID>  (1) 


>  <Patent Number>  (1) 


>  <Authors>  (1) 
Dorsch, D; Mederski, WW; Beier, N; Lues, I; Minck, K; Schelling, P

>  <Institution>  (1) 
TBA

>  <Link to Ligand in BindingDB>  (1) 
http://www.bindingdb.org/bind/chemsearch/marvin/MolStructure.jsp?monomerid=50403242

>  <Link to Ligand-Target Pair in BindingDB>  (1) 
http://www.bindingdb.org/jsp/dbsearch/PrimarySearch_ki.jsp?energyterm=kJ/mole&tag=r21&monomerid=50403242&enzyme=Type-1+angiotensin+II+receptor&column=ki&startPg=0&Increment=50&submit=Search

>  <Ligand HET ID in PDB>  (1) 


>  <PDB ID(s) for Ligand-Target Complex>  (1) 


>  <PubChem CID of Ligand>  (1) 
91928451

>  <PubChem SID of Ligand>  (1) 
163352266

>  <ChEBI ID of Ligand>  (1) 


>  <ChEMBL ID of Ligand>  (1) 
CHEMBL2079790

>  <DrugBank ID of Ligand>  (1) 


>  <IUPHAR_GRAC ID of Ligand>  (1) 


>  <KEGG ID of Ligand>  (1) 


>  <ZINC ID of Ligand>  (1) 
ZINC28757127

>  <Number of Protein Chains in Target (bigger than 1 implies a multichain complex)>  (1) 
1

>  <BindingDB Target Chain Sequence>  (1) 
MMLNSSTEDGIKRIQDDCPKAGRHNYIFVMIPTLYSIIFVVGIFGNSLAVIVIYFYMKLKTVASVFLLNLALADLCFLLTLPLWAVYTAMEYRWPFGNYLCKIASASVSFNLYASVFLLTCLSIDRYLAIVHPMKSRLRRTMLVAKVTCIIIWLLAGLASLPAIIHRNVFFIENTNITVCAFHYESQNSTLPIGLGLTKNILGFLFPFLIILTSYTLIWKALKKAYEIQKNKPRNDDIFKIIMAIVLFFFFSWVPHQIFTFLDVLIQLGVIHDCRIADIVDTAMPITICIAYFNNCLNPLFYGFLGKKFKKYFLQLLKYIPPKAKSHSNLSTKMSTLSYRPSDNVSSSSKKPVPCFEVE

>  <PDB ID(s) of Target Chain>  (1) 
6DO1,6OS0,6OS1,6OS2

>  <UniProt (SwissProt) Recommended Name of Target Chain>  (1) 
Type-1 angiotensin II receptor

>  <UniProt (SwissProt) Entry Name of Target Chain>  (1) 
AGTR1_RABIT

>  <UniProt (SwissProt) Primary ID of Target Chain>  (1) 
P34976

>  <UniProt (SwissProt) Secondary ID(s) of Target Chain>  (1) 


>  <UniProt (SwissProt) Alternative ID(s) of Target Chain>  (1) 


>  <UniProt (TrEMBL) Submitted Name of Target Chain>  (1) 


>  <UniProt (TrEMBL) Entry Name of Target Chain>  (1) 


>  <UniProt (TrEMBL) Primary ID of Target Chain>  (1) 


>  <UniProt (TrEMBL) Secondary ID(s) of Target Chain>  (1) 


>  <UniProt (TrEMBL) Alternative ID(s) of Target Chain>  (1) 


$$$$
