
     RDKit          2D

 40 44  0  0  0  0  0  0  0  0999 V2000
    4.8154   -3.3263    0.0000 N   0  0  0  0  0  0  0  0  0  0  0  0
    5.4889   -2.8452    0.0000 C   0  0  0  0  0  0  0  0  0  0  0  0
    5.2277   -2.0526    0.0000 N   0  0  0  0  0  0  0  0  0  0  0  0
    4.4030   -2.0526    0.0000 N   0  0  0  0  0  0  0  0  0  0  0  0
    4.1510   -2.8452    0.0000 C   0  0  0  0  0  0  0  0  0  0  0  0
    8.3845   -4.5680    0.0000 C   0  0  0  0  0  0  0  0  0  0  0  0
    7.7156   -4.0869    0.0000 N   0  0  0  0  0  0  0  0  0  0  0  0
    7.9721   -3.3034    0.0000 N   0  0  0  0  0  0  0  0  0  0  0  0
    9.0580   -4.0869    0.0000 N   0  0  0  0  0  0  0  0  0  0  0  0
    8.8015   -3.2897    0.0000 N   0  0  0  0  0  0  0  0  0  0  0  0
    5.7179   -1.3791    0.0000 C   0  0  0  0  0  0  0  0  0  0  0  0
    8.3982   -5.3927    0.0000 C   0  0  0  0  0  0  0  0  0  0  0  0
    7.6744   -5.8050    0.0000 C   0  0  0  0  0  0  0  0  0  0  0  0
    4.8154   -4.1510    0.0000 C   0  0  0  0  0  0  0  0  0  0  0  0
    6.2677   -3.0973    0.0000 O   0  0  0  0  0  0  0  0  0  0  0  0
    6.9687   -5.3927    0.0000 C   0  0  0  0  0  0  0  0  0  0  0  0
    5.3743   -0.6369    0.0000 C   0  0  0  0  0  0  0  0  0  0  0  0
    4.5496   -0.5544    0.0000 C   0  0  0  0  0  0  0  0  0  0  0  0
    6.2586   -5.8050    0.0000 C   0  0  0  0  0  0  0  0  0  0  0  0
    6.9734   -4.5680    0.0000 C   0  0  0  0  0  0  0  0  0  0  0  0
    5.5393   -4.5680    0.0000 C   0  0  0  0  0  0  0  0  0  0  0  0
    3.3722   -3.0973    0.0000 C   0  0  0  0  0  0  0  0  0  0  0  0
    5.5439   -5.3927    0.0000 C   0  0  0  0  0  0  0  0  0  0  0  0
    6.2449   -4.1510    0.0000 C   0  0  0  0  0  0  0  0  0  0  0  0
    5.8554    0.0366    0.0000 O   0  0  0  0  0  0  0  0  0  0  0  0
    9.1038   -5.8050    0.0000 C   0  0  0  0  0  0  0  0  0  0  0  0
    7.6744   -6.6297    0.0000 C   0  0  0  0  0  0  0  0  0  0  0  0
    4.2106    0.1924    0.0000 C   0  0  0  0  0  0  0  0  0  0  0  0
    4.0732   -1.2279    0.0000 C   0  0  0  0  0  0  0  0  0  0  0  0
    6.6801   -0.0321    0.0000 C   0  0  0  0  0  0  0  0  0  0  0  0
    2.7490   -2.5475    0.0000 C   0  0  0  0  0  0  0  0  0  0  0  0
    7.1612    0.6323    0.0000 C   0  0  0  0  0  0  0  0  0  0  0  0
    1.9655   -2.8086    0.0000 C   0  0  0  0  0  0  0  0  0  0  0  0
    9.1038   -6.6297    0.0000 C   0  0  0  0  0  0  0  0  0  0  0  0
    8.3982   -7.0421    0.0000 C   0  0  0  0  0  0  0  0  0  0  0  0
    1.3379   -2.2588    0.0000 C   0  0  0  0  0  0  0  0  0  0  0  0
    7.9859    0.5452    0.0000 C   0  0  0  0  0  0  0  0  0  0  0  0
    3.3859    0.2703    0.0000 C   0  0  0  0  0  0  0  0  0  0  0  0
    3.2485   -1.1592    0.0000 C   0  0  0  0  0  0  0  0  0  0  0  0
    2.9048   -0.4032    0.0000 C   0  0  0  0  0  0  0  0  0  0  0  0
  2  1  1  0
  3  2  1  0
  4  5  2  0
  5  1  1  0
  6 12  1  0
  7  6  1  0
  8  7  1  0
  9  6  2  0
 10  9  1  0
 11  3  1  0
 12 13  1  0
 13 16  1  0
 14  1  1  0
 15  2  2  0
 16 20  2  0
 17 11  1  0
 18 17  1  0
 19 23  2  0
 20 24  1  0
 21 14  1  0
 22  5  1  0
 23 21  1  0
 24 21  2  0
 25 17  1  0
 26 12  2  0
 27 13  2  0
 28 18  2  0
 29 18  1  0
 30 25  1  0
 31 22  1  0
 32 30  1  0
 33 31  1  0
 34 35  2  0
 35 27  1  0
 36 33  1  0
 37 32  1  0
 38 28  1  0
 39 29  2  0
 40 39  1  0
  3  4  1  0
 19 16  1  0
 38 40  2  0
 34 26  1  0
 10  8  2  0
M  END
>  <From>  (1) 
www.bindingDB.org

>  <BindingDB Reactant_set_id>  (1) 
50071178

>  <Ligand InChI>  (1) 
InChI=1S/C31H35N7O2/c1-3-5-15-29-34-38(22-28(40-20-4-2)25-11-7-6-8-12-25)31(39)37(29)21-23-16-18-24(19-17-23)26-13-9-10-14-27(26)30-32-35-36-33-30/h6-14,16-19,28H,3-5,15,20-22H2,1-2H3,(H,32,33,35,36)

>  <Ligand InChI Key>  (1) 
BDNZRTTUCHGDRE-UHFFFAOYSA-N

>  <BindingDB MonomerID>  (1) 
50044363

>  <BindingDB Ligand Name>  (1) 
5-Butyl-2-(2-phenyl-2-propoxy-ethyl)-4-[2'-(2H-tetrazol-5-yl)-biphenyl-4-ylmethyl]-2,4-dihydro-[1,2,4]triazol-3-one::CHEMBL308239

>  <Target Name>  (1) 
Type-1 angiotensin II receptor B

>  <Target Source Organism According to Curator or DataSource>  (1) 
Rattus

>  <Ki (nM)>  (1) 


>  <IC50 (nM)>  (1) 
 45

>  <Kd (nM)>  (1) 


>  <EC50 (nM)>  (1) 


>  <kon (M-1-s-1)>  (1) 


>  <koff (s-1)>  (1) 


>  <pH>  (1) 


>  <Temp C>  (1) 


>  <Curation/DataSource>  (1) 
ChEMBL

>  <Article DOI>  (1) 
10.1021/jm00067a015

>  <BindingDB Entry DOI>  (1) 
10.7270/Q2C53JXM

>  <PMID>  (1) 
8340920

>  <PubChem AID>  (1) 


>  <Patent Number>  (1) 


>  <Authors>  (1) 
Huang, HC; Reitz, DB; Chamberlain, TS; Olins, GM; Corpus, VM; McMahon, EG; Palomo, MA; Koepke, JP; Smits, GJ; McGraw, DE

>  <Institution>  (1) 
Searle R&D

>  <Link to Ligand in BindingDB>  (1) 
http://www.bindingdb.org/bind/chemsearch/marvin/MolStructure.jsp?monomerid=50044363

>  <Link to Ligand-Target Pair in BindingDB>  (1) 
http://www.bindingdb.org/jsp/dbsearch/PrimarySearch_ki.jsp?energyterm=kJ/mole&tag=r21&monomerid=50044363&enzyme=Type-1+angiotensin+II+receptor+B&column=ki&startPg=0&Increment=50&submit=Search

>  <Ligand HET ID in PDB>  (1) 


>  <PDB ID(s) for Ligand-Target Complex>  (1) 


>  <PubChem CID of Ligand>  (1) 
14951085

>  <PubChem SID of Ligand>  (1) 
103975618

>  <ChEBI ID of Ligand>  (1) 


>  <ChEMBL ID of Ligand>  (1) 
CHEMBL308239

>  <DrugBank ID of Ligand>  (1) 


>  <IUPHAR_GRAC ID of Ligand>  (1) 


>  <KEGG ID of Ligand>  (1) 


>  <ZINC ID of Ligand>  (1) 
ZINC26275521

>  <Number of Protein Chains in Target (bigger than 1 implies a multichain complex)>  (1) 
1

>  <BindingDB Target Chain Sequence>  (1) 
MTLNSSTEDGIKRIQDDCPKAGRHNYIFVMIPTLYSIIFVVGIFGNSLVVIVIYFYMKLKTVASVFLLNLALADLCFLLTLPLWAVYTAMEYRWPFGNHLCKIASASVSFNLYASVFLLTCLSIDRYLAIVHPMKSRLRRTMLVAKVTCIIIWLMAGLASLPAVIYRNVYFIENTNITVCAFHYESQNSTLPIGLGLTKNILGFVFPFLIILTSYTLIWKALKKAYKIQKNTPRNDDIFRIIMAIVLFFFFSWVPHQIFTFLDVLIQLGIIRDCEIADIVDTAMPITICIAYFNNCLNPLFYGFLGKKFKKYFLQLLKYIPPTAKSHAGLSTKMSTLSYRPSDNMSSSAKKSASFFEVE

>  <PDB ID(s) of Target Chain>  (1) 


>  <UniProt (SwissProt) Recommended Name of Target Chain>  (1) 
Type-1 angiotensin II receptor B

>  <UniProt (SwissProt) Entry Name of Target Chain>  (1) 
AGTRB_RAT

>  <UniProt (SwissProt) Primary ID of Target Chain>  (1) 
P29089

>  <UniProt (SwissProt) Secondary ID(s) of Target Chain>  (1) 


>  <UniProt (SwissProt) Alternative ID(s) of Target Chain>  (1) 


>  <UniProt (TrEMBL) Submitted Name of Target Chain>  (1) 


>  <UniProt (TrEMBL) Entry Name of Target Chain>  (1) 


>  <UniProt (TrEMBL) Primary ID of Target Chain>  (1) 


>  <UniProt (TrEMBL) Secondary ID(s) of Target Chain>  (1) 


>  <UniProt (TrEMBL) Alternative ID(s) of Target Chain>  (1) 


$$$$
