
     RDKit          2D

 36 40  0  0  0  0  0  0  0  0999 V2000
    4.3435   -3.8510    0.0000 N   0  0  0  0  0  0  0  0  0  0  0  0
    3.8510   -3.1855    0.0000 C   0  0  0  0  0  0  0  0  0  0  0  0
    3.8510   -4.5032    0.0000 C   0  0  0  0  0  0  0  0  0  0  0  0
    8.7446   -4.2903    0.0000 C   0  0  0  0  0  0  0  0  0  0  0  0
    4.1039   -2.4003    0.0000 C   0  0  0  0  0  0  0  0  0  0  0  0
    8.3453   -3.0347    0.0000 N   0  0  0  0  0  0  0  0  0  0  0  0
    8.0836   -3.8066    0.0000 N   0  0  0  0  0  0  0  0  0  0  0  0
    9.1617   -3.0391    0.0000 N   0  0  0  0  0  0  0  0  0  0  0  0
    3.0658   -3.4384    0.0000 C   0  0  0  0  0  0  0  0  0  0  0  0
    9.4013   -3.8199    0.0000 N   0  0  0  0  0  0  0  0  0  0  0  0
    8.7358   -5.1022    0.0000 C   0  0  0  0  0  0  0  0  0  0  0  0
    3.0658   -4.2636    0.0000 C   0  0  0  0  0  0  0  0  0  0  0  0
    8.0259   -5.4970    0.0000 C   0  0  0  0  0  0  0  0  0  0  0  0
    4.9025   -2.2272    0.0000 C   0  0  0  0  0  0  0  0  0  0  0  0
    5.1687   -3.8510    0.0000 C   0  0  0  0  0  0  0  0  0  0  0  0
    7.3116   -5.0889    0.0000 C   0  0  0  0  0  0  0  0  0  0  0  0
    4.1039   -5.3018    0.0000 O   0  0  0  0  0  0  0  0  0  0  0  0
    5.4615   -2.8395    0.0000 O   0  0  0  0  0  0  0  0  0  0  0  0
    6.5929   -5.4970    0.0000 C   0  0  0  0  0  0  0  0  0  0  0  0
    7.3116   -4.2636    0.0000 C   0  0  0  0  0  0  0  0  0  0  0  0
    5.8830   -4.2636    0.0000 C   0  0  0  0  0  0  0  0  0  0  0  0
    5.1554   -1.4419    0.0000 O   0  0  0  0  0  0  0  0  0  0  0  0
    5.8830   -5.0889    0.0000 C   0  0  0  0  0  0  0  0  0  0  0  0
    6.5929   -3.8510    0.0000 C   0  0  0  0  0  0  0  0  0  0  0  0
    2.2139   -3.6336    0.0000 C   0  0  0  0  0  0  0  0  0  0  0  0
    3.4384   -2.6398    0.0000 C   0  0  0  0  0  0  0  0  0  0  0  0
    9.4412   -5.5103    0.0000 C   0  0  0  0  0  0  0  0  0  0  0  0
    8.0259   -6.3400    0.0000 C   0  0  0  0  0  0  0  0  0  0  0  0
    5.9673   -1.2689    0.0000 C   0  0  0  0  0  0  0  0  0  0  0  0
    3.0613   -1.8546    0.0000 C   0  0  0  0  0  0  0  0  0  0  0  0
    1.5306   -3.0879    0.0000 C   0  0  0  0  0  0  0  0  0  0  0  0
    8.7180   -6.7393    0.0000 C   0  0  0  0  0  0  0  0  0  0  0  0
    9.4279   -6.3400    0.0000 C   0  0  0  0  0  0  0  0  0  0  0  0
    6.2202   -0.4836    0.0000 C   0  0  0  0  0  0  0  0  0  0  0  0
    1.5218   -2.2006    0.0000 C   0  0  0  0  0  0  0  0  0  0  0  0
    2.2139   -1.6637    0.0000 C   0  0  0  0  0  0  0  0  0  0  0  0
  2  1  1  0
  3  1  1  0
  4 11  1  0
  5  2  2  0
  6  7  1  0
  7  4  1  0
  8 10  1  0
  9  2  1  0
 10  4  2  0
 11 13  1  0
 12  3  1  0
 13 16  1  0
 14  5  1  0
 15  1  1  0
 16 20  2  0
 17  3  2  0
 18 14  2  0
 19 23  2  0
 20 24  1  0
 21 15  1  0
 22 14  1  0
 23 21  1  0
 24 21  2  0
 25  9  1  0
 26  9  1  0
 27 11  2  0
 28 13  2  0
 29 22  1  0
 30 26  1  0
 31 25  1  0
 32 28  1  0
 33 32  2  0
 34 29  1  0
 35 31  1  0
 36 30  1  0
 12  9  1  0
 16 19  1  0
 36 35  1  0
 33 27  1  0
  6  8  2  0
M  END
>  <From>  (1) 
www.bindingDB.org

>  <BindingDB Reactant_set_id>  (1) 
50465993

>  <Ligand InChI>  (1) 
InChI=1S/C28H31N5O3/c1-2-36-26(35)17-24-28(15-7-3-4-8-16-28)18-25(34)33(24)19-20-11-13-21(14-12-20)22-9-5-6-10-23(22)27-29-31-32-30-27/h5-6,9-14,17H,2-4,7-8,15-16,18-19H2,1H3,(H,29,30,31,32)/b24-17-

>  <Ligand InChI Key>  (1) 
VUVOEWLUOKHLID-ULJHMMPZSA-N

>  <BindingDB MonomerID>  (1) 
50281522

>  <BindingDB Ligand Name>  (1) 
CHEMBL121871::[3-Oxo-2-[2'-(1H-tetrazol-5-yl)-biphenyl-4-ylmethyl]-2-aza-spiro[4.6]undec-(1Z)-ylidene]-acetic acid ethyl ester

>  <Target Name>  (1) 
Type-1 angiotensin II receptor

>  <Target Source Organism According to Curator or DataSource>  (1) 
Bos taurus

>  <Ki (nM)>  (1) 


>  <IC50 (nM)>  (1) 
 60

>  <Kd (nM)>  (1) 


>  <EC50 (nM)>  (1) 


>  <kon (M-1-s-1)>  (1) 


>  <koff (s-1)>  (1) 


>  <pH>  (1) 


>  <Temp C>  (1) 


>  <Curation/DataSource>  (1) 
ChEMBL

>  <Article DOI>  (1) 
10.1016/S0960-894X(01)80914-8

>  <BindingDB Entry DOI>  (1) 
10.7270/Q20G3K2H

>  <PMID>  (1) 


>  <PubChem AID>  (1) 


>  <Patent Number>  (1) 


>  <Authors>  (1) 
Murray, WV; Lalan, P; Gill, A; Addo, MF; Lewis, JM; Lee, DK; Wachter, MP; Rampulla, R; Underwood, DC

>  <Institution>  (1) 
TBA

>  <Link to Ligand in BindingDB>  (1) 
http://www.bindingdb.org/bind/chemsearch/marvin/MolStructure.jsp?monomerid=50281522

>  <Link to Ligand-Target Pair in BindingDB>  (1) 
http://www.bindingdb.org/jsp/dbsearch/PrimarySearch_ki.jsp?energyterm=kJ/mole&tag=r21&monomerid=50281522&enzyme=Type-1+angiotensin+II+receptor&column=ki&startPg=0&Increment=50&submit=Search

>  <Ligand HET ID in PDB>  (1) 


>  <PDB ID(s) for Ligand-Target Complex>  (1) 


>  <PubChem CID of Ligand>  (1) 
44348332

>  <PubChem SID of Ligand>  (1) 
104123196

>  <ChEBI ID of Ligand>  (1) 


>  <ChEMBL ID of Ligand>  (1) 
CHEMBL121871

>  <DrugBank ID of Ligand>  (1) 


>  <IUPHAR_GRAC ID of Ligand>  (1) 


>  <KEGG ID of Ligand>  (1) 


>  <ZINC ID of Ligand>  (1) 
ZINC27205636

>  <Number of Protein Chains in Target (bigger than 1 implies a multichain complex)>  (1) 
1

>  <BindingDB Target Chain Sequence>  (1) 
MILNSSTEDGIKRIQDDCPKAGRHNYIFIMIPTLYSIIFVVGIFGNSLVVIVIYFYMKLKTVASVFLLNLALADLCFLLTLPLWAVYTAMEYRWPFGNYLCKIASASVSFNLYASVFLLTCLSIDRYLAIVHPMKSRLRRTMLVAKVTCIIIWLLAGLASLPTIIHRNVFFIENTNITVCAFHYESQNSTLPVGLGLTKNILGFLFPFLIILTSYTLIWKTLKKAYEIQKNKPRKDDIFKIILAIVLFFFFSWVPHQIFTFMDVLIQLGLIRDCKIEDIVDTAMPITICLAYFNNCLNPLFYGFLGKKFKKYFLQLLKYIPPKAKSHSNLSTKMSTLSYRPSENGNSSTKKPAPCIEVE

>  <PDB ID(s) of Target Chain>  (1) 


>  <UniProt (SwissProt) Recommended Name of Target Chain>  (1) 
Type-1 angiotensin II receptor

>  <UniProt (SwissProt) Entry Name of Target Chain>  (1) 
AGTR1_BOVIN

>  <UniProt (SwissProt) Primary ID of Target Chain>  (1) 
P25104

>  <UniProt (SwissProt) Secondary ID(s) of Target Chain>  (1) 


>  <UniProt (SwissProt) Alternative ID(s) of Target Chain>  (1) 


>  <UniProt (TrEMBL) Submitted Name of Target Chain>  (1) 


>  <UniProt (TrEMBL) Entry Name of Target Chain>  (1) 


>  <UniProt (TrEMBL) Primary ID of Target Chain>  (1) 


>  <UniProt (TrEMBL) Secondary ID(s) of Target Chain>  (1) 


>  <UniProt (TrEMBL) Alternative ID(s) of Target Chain>  (1) 


$$$$
