
     RDKit          2D

 45 49  0  0  0  0  0  0  0  0999 V2000
    4.5618   -4.5117    0.0000 N   0  0  0  0  0  0  0  0  0  0  0  0
    5.2087   -3.9984    0.0000 C   0  0  0  0  0  0  0  0  0  0  0  0
    4.9124   -3.2221    0.0000 C   0  0  0  0  0  0  0  0  0  0  0  0
    4.0860   -3.2680    0.0000 N   0  0  0  0  0  0  0  0  0  0  0  0
    3.8732   -4.0610    0.0000 C   0  0  0  0  0  0  0  0  0  0  0  0
    8.1804   -5.5760    0.0000 C   0  0  0  0  0  0  0  0  0  0  0  0
    7.7046   -4.3239    0.0000 N   0  0  0  0  0  0  0  0  0  0  0  0
    7.4875   -5.1253    0.0000 N   0  0  0  0  0  0  0  0  0  0  0  0
    8.5267   -4.2864    0.0000 N   0  0  0  0  0  0  0  0  0  0  0  0
    4.1737   -1.7446    0.0000 C   0  0  0  0  0  0  0  0  0  0  0  0
    8.8189   -5.0501    0.0000 N   0  0  0  0  0  0  0  0  0  0  0  0
    4.9958   -1.7947    0.0000 N   0  0  0  0  0  0  0  0  0  0  0  0
    6.0017   -4.2112    0.0000 C   0  0  0  0  0  0  0  0  0  0  0  0
    8.2304   -6.3982    0.0000 C   0  0  0  0  0  0  0  0  0  0  0  0
    5.3632   -2.5334    0.0000 C   0  0  0  0  0  0  0  0  0  0  0  0
    7.5376   -6.8489    0.0000 C   0  0  0  0  0  0  0  0  0  0  0  0
    4.5994   -5.3381    0.0000 C   0  0  0  0  0  0  0  0  0  0  0  0
    3.7980   -1.0142    0.0000 O   0  0  0  0  0  0  0  0  0  0  0  0
    6.8031   -6.4733    0.0000 C   0  0  0  0  0  0  0  0  0  0  0  0
    5.4508   -1.1060    0.0000 C   0  0  0  0  0  0  0  0  0  0  0  0
    3.7187   -2.4416    0.0000 O   0  0  0  0  0  0  0  0  0  0  0  0
    6.0017   -4.7622    0.0000 O   0  0  0  0  0  0  0  0  0  0  0  0
    6.1102   -6.9157    0.0000 C   0  0  0  0  0  0  0  0  0  0  0  0
    6.7655   -5.6386    0.0000 C   0  0  0  0  0  0  0  0  0  0  0  0
    5.3381   -5.7137    0.0000 C   0  0  0  0  0  0  0  0  0  0  0  0
    6.5902   -3.6353    0.0000 O   0  0  0  0  0  0  0  0  0  0  0  0
    3.0969   -4.3573    0.0000 C   0  0  0  0  0  0  0  0  0  0  0  0
    2.9717   -0.9683    0.0000 C   0  0  0  0  0  0  0  0  0  0  0  0
    5.0752   -0.3673    0.0000 C   0  0  0  0  0  0  0  0  0  0  0  0
    6.0268   -5.2713    0.0000 C   0  0  0  0  0  0  0  0  0  0  0  0
    5.3757   -6.5401    0.0000 C   0  0  0  0  0  0  0  0  0  0  0  0
    8.9650   -6.7738    0.0000 C   0  0  0  0  0  0  0  0  0  0  0  0
    7.5794   -7.6753    0.0000 C   0  0  0  0  0  0  0  0  0  0  0  0
    2.5209   -1.6570    0.0000 C   0  0  0  0  0  0  0  0  0  0  0  0
    4.2571   -0.3255    0.0000 C   0  0  0  0  0  0  0  0  0  0  0  0
    5.5259    0.3213    0.0000 C   0  0  0  0  0  0  0  0  0  0  0  0
    2.4583   -3.8356    0.0000 C   0  0  0  0  0  0  0  0  0  0  0  0
    1.6945   -1.6069    0.0000 C   0  0  0  0  0  0  0  0  0  0  0  0
    2.8923   -2.3957    0.0000 C   0  0  0  0  0  0  0  0  0  0  0  0
    8.3139   -8.0509    0.0000 C   0  0  0  0  0  0  0  0  0  0  0  0
    9.0067   -7.6044    0.0000 C   0  0  0  0  0  0  0  0  0  0  0  0
    1.6903   -4.1236    0.0000 C   0  0  0  0  0  0  0  0  0  0  0  0
    5.1586    1.0601    0.0000 C   0  0  0  0  0  0  0  0  0  0  0  0
    3.8815    0.4090    0.0000 C   0  0  0  0  0  0  0  0  0  0  0  0
    4.3322    1.1102    0.0000 C   0  0  0  0  0  0  0  0  0  0  0  0
  2  1  1  0
  3  2  2  0
  4  5  2  0
  5  1  1  0
  6 14  1  0
  7  8  1  0
  8  6  1  0
  9 11  1  0
 10 12  1  0
 11  6  2  0
 12 15  1  0
 13  2  1  0
 14 16  1  0
 15  3  1  0
 16 19  1  0
 17  1  1  0
 18 10  1  0
 19 23  2  0
 20 12  1  0
 21 10  2  0
 22 13  2  0
 23 31  1  0
 24 30  2  0
 25 17  1  0
 26 13  1  0
 27  5  1  0
 28 18  1  0
 29 20  1  0
 30 25  1  0
 31 25  2  0
 32 14  2  0
 33 16  2  0
 34 28  1  0
 35 29  2  0
 36 29  1  0
 37 27  1  0
 38 34  1  0
 39 34  1  0
 40 33  1  0
 41 40  2  0
 42 37  1  0
 43 36  2  0
 44 35  1  0
 45 43  1  0
  4  3  1  0
 19 24  1  0
 41 32  1  0
 45 44  2  0
  7  9  2  0
M  END
>  <From>  (1) 
www.bindingDB.org

>  <BindingDB Reactant_set_id>  (1) 
50469054

>  <Ligand InChI>  (1) 
InChI=1S/C34H37N7O4/c1-4-10-30-35-29(21-40(34(44)45-22-23(2)3)19-24-11-6-5-7-12-24)31(33(42)43)41(30)20-25-15-17-26(18-16-25)27-13-8-9-14-28(27)32-36-38-39-37-32/h5-9,11-18,23H,4,10,19-22H2,1-3H3,(H,42,43)(H,36,37,38,39)

>  <Ligand InChI Key>  (1) 
DZSSNZFJDSULEV-UHFFFAOYSA-N

>  <BindingDB MonomerID>  (1) 
50283167

>  <BindingDB Ligand Name>  (1) 
5-[(Benzyl-isobutoxycarbonyl-amino)-methyl]-2-propyl-3-[2'-(1H-tetrazol-5-yl)-biphenyl-4-ylmethyl]-3H-imidazole-4-carboxylic acid::CHEMBL273992

>  <Target Name>  (1) 
Type-1 angiotensin II receptor

>  <Target Source Organism According to Curator or DataSource>  (1) 
Homo sapiens

>  <Ki (nM)>  (1) 


>  <IC50 (nM)>  (1) 
 20

>  <Kd (nM)>  (1) 


>  <EC50 (nM)>  (1) 


>  <kon (M-1-s-1)>  (1) 


>  <koff (s-1)>  (1) 


>  <pH>  (1) 


>  <Temp C>  (1) 


>  <Curation/DataSource>  (1) 
ChEMBL

>  <Article DOI>  (1) 
10.1016/S0960-894X(00)80076-1

>  <BindingDB Entry DOI>  (1) 
10.7270/Q2JQ110M

>  <PMID>  (1) 


>  <PubChem AID>  (1) 


>  <Patent Number>  (1) 


>  <Authors>  (1) 
Olson, RE; Liu, J; Lalka, GK; VanAtten, MK; Wexler, RR; Chiu, AT; Nguyen, TT; McCall, DE; Wong, PC; Timmermans, PB

>  <Institution>  (1) 
TBA

>  <Link to Ligand in BindingDB>  (1) 
http://www.bindingdb.org/bind/chemsearch/marvin/MolStructure.jsp?monomerid=50283167

>  <Link to Ligand-Target Pair in BindingDB>  (1) 
http://www.bindingdb.org/jsp/dbsearch/PrimarySearch_ki.jsp?energyterm=kJ/mole&tag=r21&monomerid=50283167&enzyme=Type-1+angiotensin+II+receptor&column=ki&startPg=0&Increment=50&submit=Search

>  <Ligand HET ID in PDB>  (1) 


>  <PDB ID(s) for Ligand-Target Complex>  (1) 


>  <PubChem CID of Ligand>  (1) 
44311568

>  <PubChem SID of Ligand>  (1) 
104124841

>  <ChEBI ID of Ligand>  (1) 


>  <ChEMBL ID of Ligand>  (1) 
CHEMBL273992

>  <DrugBank ID of Ligand>  (1) 


>  <IUPHAR_GRAC ID of Ligand>  (1) 


>  <KEGG ID of Ligand>  (1) 


>  <ZINC ID of Ligand>  (1) 
ZINC26293890

>  <Number of Protein Chains in Target (bigger than 1 implies a multichain complex)>  (1) 
1

>  <BindingDB Target Chain Sequence>  (1) 
MILNSSTEDGIKRIQDDCPKAGRHNYIFVMIPTLYSIIFVVGIFGNSLVVIVIYFYMKLKTVASVFLLNLALADLCFLLTLPLWAVYTAMEYRWPFGNYLCKIASASVSFNLYASVFLLTCLSIDRYLAIVHPMKSRLRRTMLVAKVTCIIIWLLAGLASLPAIIHRNVFFIENTNITVCAFHYESQNSTLPIGLGLTKNILGFLFPFLIILTSYTLIWKALKKAYEIQKNKPRNDDIFKIIMAIVLFFFFSWIPHQIFTFLDVLIQLGIIRDCRIADIVDTAMPITICIAYFNNCLNPLFYGFLGKKFKRYFLQLLKYIPPKAKSHSNLSTKMSTLSYRPSDNVSSSTKKPAPCFEVE

>  <PDB ID(s) of Target Chain>  (1) 
6DO1,6OS0,6OS1,6OS2

>  <UniProt (SwissProt) Recommended Name of Target Chain>  (1) 
Type-1 angiotensin II receptor

>  <UniProt (SwissProt) Entry Name of Target Chain>  (1) 
AGTR1_HUMAN

>  <UniProt (SwissProt) Primary ID of Target Chain>  (1) 
P30556

>  <UniProt (SwissProt) Secondary ID(s) of Target Chain>  (1) 
Q13725 Q8TBK4

>  <UniProt (SwissProt) Alternative ID(s) of Target Chain>  (1) 


>  <UniProt (TrEMBL) Submitted Name of Target Chain>  (1) 


>  <UniProt (TrEMBL) Entry Name of Target Chain>  (1) 


>  <UniProt (TrEMBL) Primary ID of Target Chain>  (1) 


>  <UniProt (TrEMBL) Secondary ID(s) of Target Chain>  (1) 


>  <UniProt (TrEMBL) Alternative ID(s) of Target Chain>  (1) 


$$$$
