
     RDKit          2D

 46 49  0  0  0  0  0  0  0  0999 V2000
    1.2029   -4.9489    0.0000 N   0  0  0  0  0  0  0  0  0  0  0  0
    1.5122   -6.2435    0.0000 N   0  0  0  0  0  0  0  0  0  0  0  0
    1.8272   -5.4816    0.0000 C   0  0  0  0  0  0  0  0  0  0  0  0
    5.2067   -5.4472    0.0000 S   0  0  0  0  0  0  0  0  0  0  0  0
    0.4983   -5.3785    0.0000 N   0  0  0  0  0  0  0  0  0  0  0  0
    0.6873   -6.1747    0.0000 C   0  0  0  0  0  0  0  0  0  0  0  0
    5.6019   -4.7255    0.0000 N   0  0  0  0  0  0  0  0  0  0  0  0
    1.2716   -4.1241    0.0000 C   0  0  0  0  0  0  0  0  0  0  0  0
    1.9418   -6.9480    0.0000 C   0  0  0  0  0  0  0  0  0  0  0  0
    5.6363   -6.1518    0.0000 C   0  0  0  0  0  0  0  0  0  0  0  0
    6.4267   -4.7083    0.0000 C   0  0  0  0  0  0  0  0  0  0  0  0
    2.7552   -6.9250    0.0000 C   0  0  0  0  0  0  0  0  0  0  0  0
    5.2296   -6.8735    0.0000 C   0  0  0  0  0  0  0  0  0  0  0  0
    4.4162   -6.8793    0.0000 C   0  0  0  0  0  0  0  0  0  0  0  0
    2.0163   -3.7690    0.0000 C   0  0  0  0  0  0  0  0  0  0  0  0
    3.1848   -7.6296    0.0000 C   0  0  0  0  0  0  0  0  0  0  0  0
    4.5193   -4.8286    0.0000 O   0  0  0  0  0  0  0  0  0  0  0  0
    4.7485   -6.1576    0.0000 O   0  0  0  0  0  0  0  0  0  0  0  0
    4.0096   -7.6124    0.0000 C   0  0  0  0  0  0  0  0  0  0  0  0
    2.6291   -5.2926    0.0000 O   0  0  0  0  0  0  0  0  0  0  0  0
    0.5900   -3.6601    0.0000 C   0  0  0  0  0  0  0  0  0  0  0  0
    2.8926   -1.7757    0.0000 C   0  0  0  0  0  0  0  0  0  0  0  0
    2.8239   -2.6005    0.0000 N   0  0  0  0  0  0  0  0  0  0  0  0
    6.8277   -3.9866    0.0000 O   0  0  0  0  0  0  0  0  0  0  0  0
    2.0792   -2.9442    0.0000 C   0  0  0  0  0  0  0  0  0  0  0  0
    6.8563   -5.4129    0.0000 O   0  0  0  0  0  0  0  0  0  0  0  0
    3.1618   -6.1919    0.0000 C   0  0  0  0  0  0  0  0  0  0  0  0
    3.9866   -6.1747    0.0000 C   0  0  0  0  0  0  0  0  0  0  0  0
    2.2053   -1.3060    0.0000 O   0  0  0  0  0  0  0  0  0  0  0  0
    7.6525   -3.9694    0.0000 C   0  0  0  0  0  0  0  0  0  0  0  0
    0.6530   -2.8411    0.0000 C   0  0  0  0  0  0  0  0  0  0  0  0
    2.7724   -8.3399    0.0000 F   0  0  0  0  0  0  0  0  0  0  0  0
    1.3977   -2.4802    0.0000 C   0  0  0  0  0  0  0  0  0  0  0  0
   -0.1317   -4.0611    0.0000 Br  0  0  0  0  0  0  0  0  0  0  0  0
    0.1547   -6.8048    0.0000 C   0  0  0  0  0  0  0  0  0  0  0  0
    6.4497   -6.1346    0.0000 C   0  0  0  0  0  0  0  0  0  0  0  0
    5.6592   -7.5780    0.0000 C   0  0  0  0  0  0  0  0  0  0  0  0
    3.6315   -1.4148    0.0000 C   0  0  0  0  0  0  0  0  0  0  0  0
    8.0764   -4.6797    0.0000 C   0  0  0  0  0  0  0  0  0  0  0  0
    8.0478   -3.2477    0.0000 C   0  0  0  0  0  0  0  0  0  0  0  0
    8.4774   -3.9694    0.0000 C   0  0  0  0  0  0  0  0  0  0  0  0
    3.6945   -0.6072    0.0000 C   0  0  0  0  0  0  0  0  0  0  0  0
    4.4392   -0.2463    0.0000 C   0  0  0  0  0  0  0  0  0  0  0  0
    6.8793   -6.8449    0.0000 C   0  0  0  0  0  0  0  0  0  0  0  0
    6.4840   -7.5666    0.0000 C   0  0  0  0  0  0  0  0  0  0  0  0
    4.5021    0.5785    0.0000 C   0  0  0  0  0  0  0  0  0  0  0  0
  2  3  1  0
  3  1  1  0
  4 10  1  0
  5  1  1  0
  6  5  2  0
  7  4  1  0
  8  1  1  0
  9  2  1  0
 10 13  2  0
 11  7  1  0
 12  9  1  0
 13 14  1  0
 14 28  1  0
 15  8  2  0
 16 12  2  0
 17  4  2  0
 18  4  2  0
 19 16  1  0
 20  3  2  0
 21  8  1  0
 22 23  1  0
 23 25  1  0
 24 11  1  0
 25 15  1  0
 26 11  2  0
 27 12  1  0
 28 27  2  0
 29 22  2  0
 30 24  1  0
 31 21  2  0
 32 16  1  0
 33 31  1  0
 34 21  1  0
 35  6  1  0
 36 10  1  0
 37 13  1  0
 38 22  1  0
 39 30  1  0
 40 30  1  0
 41 30  1  0
 42 38  1  0
 43 42  1  0
 44 45  1  0
 45 37  2  0
 46 43  1  0
  6  2  1  0
 25 33  2  0
 19 14  2  0
 44 36  2  0
M  END
>  <From>  (1) 
www.bindingDB.org

>  <BindingDB Reactant_set_id>  (1) 
51183647

>  <Ligand InChI>  (1) 
InChI=1S/C32H35BrFN5O6S/c1-6-7-12-29(40)35-23-15-16-25(33)27(18-23)39-31(42)38(20(2)36-39)19-22-14-13-21(17-26(22)34)24-10-8-9-11-28(24)46(43,44)37-30(41)45-32(3,4)5/h8-11,13-18H,6-7,12,19H2,1-5H3,(H,35,40)(H,37,41)

>  <Ligand InChI Key>  (1) 
IJGCUOYSJNXEAC-UHFFFAOYSA-N

>  <BindingDB MonomerID>  (1) 
50030705

>  <BindingDB Ligand Name>  (1) 
CHEMBL333224::Pentanoic acid {4-bromo-3-[4-(3-fluoro-2'-(N-t-butyloxycarbonyl)-Sulfanamido-biphenyl-4-ylmethyl)-3-methyl-5-oxo-4,5-dihydro-[1,2,4]triazol-1-yl]-phenyl}-amide

>  <Target Name>  (1) 
Type-1 angiotensin II receptor

>  <Target Source Organism According to Curator or DataSource>  (1) 
Oryctolagus cuniculus

>  <Ki (nM)>  (1) 


>  <IC50 (nM)>  (1) 
 0.380189

>  <Kd (nM)>  (1) 


>  <EC50 (nM)>  (1) 


>  <kon (M-1-s-1)>  (1) 


>  <koff (s-1)>  (1) 


>  <pH>  (1) 


>  <Temp C>  (1) 


>  <Curation/DataSource>  (1) 
ChEMBL

>  <Article DOI>  (1) 
10.1007/s00044-011-9815-x

>  <BindingDB Entry DOI>  (1) 
10.7270/Q2VT1W0S

>  <PMID>  (1) 


>  <PubChem AID>  (1) 


>  <Patent Number>  (1) 


>  <Authors>  (1) 
n/a

>  <Institution>  (1) 
n/a

>  <Link to Ligand in BindingDB>  (1) 
http://www.bindingdb.org/bind/chemsearch/marvin/MolStructure.jsp?monomerid=50030705

>  <Link to Ligand-Target Pair in BindingDB>  (1) 
http://www.bindingdb.org/jsp/dbsearch/PrimarySearch_ki.jsp?energyterm=kJ/mole&tag=r21&monomerid=50030705&enzyme=Type-1+angiotensin+II+receptor&column=ki&startPg=0&Increment=50&submit=Search

>  <Ligand HET ID in PDB>  (1) 


>  <PDB ID(s) for Ligand-Target Complex>  (1) 


>  <PubChem CID of Ligand>  (1) 
10349897

>  <PubChem SID of Ligand>  (1) 
103939553

>  <ChEBI ID of Ligand>  (1) 


>  <ChEMBL ID of Ligand>  (1) 
CHEMBL333224

>  <DrugBank ID of Ligand>  (1) 


>  <IUPHAR_GRAC ID of Ligand>  (1) 


>  <KEGG ID of Ligand>  (1) 


>  <ZINC ID of Ligand>  (1) 
ZINC27206392

>  <Number of Protein Chains in Target (bigger than 1 implies a multichain complex)>  (1) 
1

>  <BindingDB Target Chain Sequence>  (1) 
MMLNSSTEDGIKRIQDDCPKAGRHNYIFVMIPTLYSIIFVVGIFGNSLAVIVIYFYMKLKTVASVFLLNLALADLCFLLTLPLWAVYTAMEYRWPFGNYLCKIASASVSFNLYASVFLLTCLSIDRYLAIVHPMKSRLRRTMLVAKVTCIIIWLLAGLASLPAIIHRNVFFIENTNITVCAFHYESQNSTLPIGLGLTKNILGFLFPFLIILTSYTLIWKALKKAYEIQKNKPRNDDIFKIIMAIVLFFFFSWVPHQIFTFLDVLIQLGVIHDCRIADIVDTAMPITICIAYFNNCLNPLFYGFLGKKFKKYFLQLLKYIPPKAKSHSNLSTKMSTLSYRPSDNVSSSSKKPVPCFEVE

>  <PDB ID(s) of Target Chain>  (1) 
6DO1,6OS0,6OS1,6OS2

>  <UniProt (SwissProt) Recommended Name of Target Chain>  (1) 
Type-1 angiotensin II receptor

>  <UniProt (SwissProt) Entry Name of Target Chain>  (1) 
AGTR1_RABIT

>  <UniProt (SwissProt) Primary ID of Target Chain>  (1) 
P34976

>  <UniProt (SwissProt) Secondary ID(s) of Target Chain>  (1) 


>  <UniProt (SwissProt) Alternative ID(s) of Target Chain>  (1) 


>  <UniProt (TrEMBL) Submitted Name of Target Chain>  (1) 


>  <UniProt (TrEMBL) Entry Name of Target Chain>  (1) 


>  <UniProt (TrEMBL) Primary ID of Target Chain>  (1) 


>  <UniProt (TrEMBL) Secondary ID(s) of Target Chain>  (1) 


>  <UniProt (TrEMBL) Alternative ID(s) of Target Chain>  (1) 


$$$$
