
     RDKit          2D

 42 46  0  0  0  0  0  0  0  0999 V2000
    0.0233  -26.0386    0.0000 C   0  0  0  0  0  0  0  0  0  0  0  0
    0.0222  -26.8582    0.0000 C   0  0  0  0  0  0  0  0  0  0  0  0
    0.7302  -27.2671    0.0000 C   0  0  0  0  0  0  0  0  0  0  0  0
    1.4399  -26.8577    0.0000 C   0  0  0  0  0  0  0  0  0  0  0  0
    1.4371  -26.0350    0.0000 C   0  0  0  0  0  0  0  0  0  0  0  0
    0.7285  -25.6298    0.0000 C   0  0  0  0  0  0  0  0  0  0  0  0
    2.1483  -27.2652    0.0000 N   0  0  0  0  0  0  0  0  0  0  0  0
    2.8553  -26.8555    0.0000 C   0  0  0  0  0  0  0  0  0  0  0  0
    3.5637  -27.2630    0.0000 C   0  0  0  0  0  0  0  0  0  0  0  0
    2.8540  -26.0383    0.0000 O   0  0  0  0  0  0  0  0  0  0  0  0
    3.5603  -28.0786    0.0000 C   0  0  0  0  0  0  0  0  0  0  0  0
    4.2678  -28.4860    0.0000 C   0  0  0  0  0  0  0  0  0  0  0  0
    4.9759  -28.0763    0.0000 C   0  0  0  0  0  0  0  0  0  0  0  0
    4.9720  -27.2548    0.0000 C   0  0  0  0  0  0  0  0  0  0  0  0
    4.2639  -26.8511    0.0000 C   0  0  0  0  0  0  0  0  0  0  0  0
   -0.6858  -25.6302    0.0000 C   0  0  0  0  0  0  0  0  0  0  0  0
   -0.6856  -24.8130    0.0000 N   0  0  0  0  0  0  0  0  0  0  0  0
   -0.0234  -24.3338    0.0000 C   0  0  0  0  0  0  0  0  0  0  0  0
   -0.2742  -23.5566    0.0000 N   0  0  0  0  0  0  0  0  0  0  0  0
   -1.0914  -23.5568    0.0000 N   0  0  0  0  0  0  0  0  0  0  0  0
   -1.3427  -24.3341    0.0000 C   0  0  0  0  0  0  0  0  0  0  0  0
   -2.1253  -24.5857    0.0000 C   0  0  0  0  0  0  0  0  0  0  0  0
   -2.2928  -25.3848    0.0000 C   0  0  0  0  0  0  0  0  0  0  0  0
   -1.6861  -25.9323    0.0000 C   0  0  0  0  0  0  0  0  0  0  0  0
    4.2532  -26.0330    0.0000 C   0  0  0  0  0  0  0  0  0  0  0  0
    0.7587  -24.5882    0.0000 S   0  0  0  0  0  0  0  0  0  0  0  0
    1.3674  -24.0428    0.0000 C   0  0  0  0  0  0  0  0  0  0  0  0
    4.9052  -25.5427    0.0000 N   0  0  0  0  0  0  0  0  0  0  0  0
    4.6423  -24.7678    0.0000 N   0  0  0  0  0  0  0  0  0  0  0  0
    3.8240  -24.7785    0.0000 N   0  0  0  0  0  0  0  0  0  0  0  0
    3.5815  -25.5599    0.0000 N   0  0  0  0  0  0  0  0  0  0  0  0
    1.1994  -23.2431    0.0000 C   0  0  0  0  0  0  0  0  0  0  0  0
    1.8103  -22.7028    0.0000 C   0  0  0  0  0  0  0  0  0  0  0  0
    1.6429  -21.9037    0.0000 C   0  0  0  0  0  0  0  0  0  0  0  0
    0.8656  -21.6486    0.0000 C   0  0  0  0  0  0  0  0  0  0  0  0
    0.2556  -22.1987    0.0000 C   0  0  0  0  0  0  0  0  0  0  0  0
    0.4262  -22.9957    0.0000 C   0  0  0  0  0  0  0  0  0  0  0  0
   -1.8536  -26.7315    0.0000 C   0  0  0  0  0  0  0  0  0  0  0  0
    0.6966  -20.8491    0.0000 C   0  0  0  0  0  0  0  0  0  0  0  0
    1.3045  -20.3029    0.0000 O   0  0  0  0  0  0  0  0  0  0  0  0
   -0.0848  -20.5957    0.0000 O   0  0  0  0  0  0  0  0  0  0  0  0
   -0.6903  -21.1418    0.0000 C   0  0  0  0  0  0  0  0  0  0  0  0
  1  2  2  0
  2  3  1  0
  3  4  2  0
  4  5  1  0
  5  6  2  0
  6  1  1  0
  4  7  1  0
  7  8  1  0
  8  9  1  0
  8 10  2  0
  9 11  2  0
 11 12  1  0
 12 13  2  0
 13 14  1  0
 14 15  2  0
 15  9  1  0
  1 16  1  0
 16 17  1  0
 17 18  1  0
 18 19  2  0
 19 20  1  0
 20 21  2  0
 21 17  1  0
 21 22  1  0
 22 23  1  0
 23 24  1  0
 15 25  1  0
 18 26  1  0
 26 27  1  0
 25 28  2  0
 28 29  1  0
 29 30  2  0
 30 31  1  0
 31 25  1  0
 27 32  1  0
 32 33  2  0
 33 34  1  0
 34 35  2  0
 35 36  1  0
 36 37  2  0
 37 32  1  0
 24 38  1  0
 35 39  1  0
 39 40  2  0
 39 41  1  0
 41 42  1  0
M  END
>  <From>  (1) 
www.bindingDB.org

>  <BindingDB Reactant_set_id>  (1) 
51183564

>  <Ligand InChI>  (1) 
InChI=1S/C30H30N8O3S/c1-3-4-9-26-32-35-30(42-19-21-10-14-22(15-11-21)29(40)41-2)38(26)18-20-12-16-23(17-13-20)31-28(39)25-8-6-5-7-24(25)27-33-36-37-34-27/h5-8,10-17H,3-4,9,18-19H2,1-2H3,(H,31,39)(H,33,34,36,37)

>  <Ligand InChI Key>  (1) 
CUWNUEWNKUJFGP-UHFFFAOYSA-N

>  <BindingDB MonomerID>  (1) 
50486761

>  <BindingDB Ligand Name>  (1) 
CHEMBL2237597

>  <Target Name>  (1) 
Type-1 angiotensin II receptor

>  <Target Source Organism According to Curator or DataSource>  (1) 
Oryctolagus cuniculus

>  <Ki (nM)>  (1) 


>  <IC50 (nM)>  (1) 
 120

>  <Kd (nM)>  (1) 


>  <EC50 (nM)>  (1) 


>  <kon (M-1-s-1)>  (1) 


>  <koff (s-1)>  (1) 


>  <pH>  (1) 


>  <Temp C>  (1) 


>  <Curation/DataSource>  (1) 
ChEMBL

>  <Article DOI>  (1) 
10.1007/s00044-011-9756-4

>  <BindingDB Entry DOI>  (1) 
10.7270/Q2833VXQ

>  <PMID>  (1) 


>  <PubChem AID>  (1) 


>  <Patent Number>  (1) 


>  <Authors>  (1) 
n/a

>  <Institution>  (1) 
n/a

>  <Link to Ligand in BindingDB>  (1) 
http://www.bindingdb.org/bind/chemsearch/marvin/MolStructure.jsp?monomerid=50486761

>  <Link to Ligand-Target Pair in BindingDB>  (1) 
http://www.bindingdb.org/jsp/dbsearch/PrimarySearch_ki.jsp?energyterm=kJ/mole&tag=r21&monomerid=50486761&enzyme=Type-1+angiotensin+II+receptor&column=ki&startPg=0&Increment=50&submit=Search

>  <Ligand HET ID in PDB>  (1) 


>  <PDB ID(s) for Ligand-Target Complex>  (1) 


>  <PubChem CID of Ligand>  (1) 
19010044

>  <PubChem SID of Ligand>  (1) 
433954026

>  <ChEBI ID of Ligand>  (1) 


>  <ChEMBL ID of Ligand>  (1) 


>  <DrugBank ID of Ligand>  (1) 


>  <IUPHAR_GRAC ID of Ligand>  (1) 


>  <KEGG ID of Ligand>  (1) 


>  <ZINC ID of Ligand>  (1) 


>  <Number of Protein Chains in Target (bigger than 1 implies a multichain complex)>  (1) 
1

>  <BindingDB Target Chain Sequence>  (1) 
MMLNSSTEDGIKRIQDDCPKAGRHNYIFVMIPTLYSIIFVVGIFGNSLAVIVIYFYMKLKTVASVFLLNLALADLCFLLTLPLWAVYTAMEYRWPFGNYLCKIASASVSFNLYASVFLLTCLSIDRYLAIVHPMKSRLRRTMLVAKVTCIIIWLLAGLASLPAIIHRNVFFIENTNITVCAFHYESQNSTLPIGLGLTKNILGFLFPFLIILTSYTLIWKALKKAYEIQKNKPRNDDIFKIIMAIVLFFFFSWVPHQIFTFLDVLIQLGVIHDCRIADIVDTAMPITICIAYFNNCLNPLFYGFLGKKFKKYFLQLLKYIPPKAKSHSNLSTKMSTLSYRPSDNVSSSSKKPVPCFEVE

>  <PDB ID(s) of Target Chain>  (1) 
6DO1,6OS0,6OS1,6OS2

>  <UniProt (SwissProt) Recommended Name of Target Chain>  (1) 
Type-1 angiotensin II receptor

>  <UniProt (SwissProt) Entry Name of Target Chain>  (1) 
AGTR1_RABIT

>  <UniProt (SwissProt) Primary ID of Target Chain>  (1) 
P34976

>  <UniProt (SwissProt) Secondary ID(s) of Target Chain>  (1) 


>  <UniProt (SwissProt) Alternative ID(s) of Target Chain>  (1) 


>  <UniProt (TrEMBL) Submitted Name of Target Chain>  (1) 


>  <UniProt (TrEMBL) Entry Name of Target Chain>  (1) 


>  <UniProt (TrEMBL) Primary ID of Target Chain>  (1) 


>  <UniProt (TrEMBL) Secondary ID(s) of Target Chain>  (1) 


>  <UniProt (TrEMBL) Alternative ID(s) of Target Chain>  (1) 


$$$$
