
     RDKit          2D

 38 42  0  0  0  0  0  0  0  0999 V2000
    5.5561   -5.0692    0.0000 N   0  0  0  0  0  0  0  0  0  0  0  0
    5.8768   -4.3017    0.0000 C   0  0  0  0  0  0  0  0  0  0  0  0
    5.2582   -3.7632    0.0000 N   0  0  0  0  0  0  0  0  0  0  0  0
    4.5423   -4.1814    0.0000 N   0  0  0  0  0  0  0  0  0  0  0  0
    4.7313   -4.9891    0.0000 C   0  0  0  0  0  0  0  0  0  0  0  0
    9.2449   -4.2959    0.0000 C   0  0  0  0  0  0  0  0  0  0  0  0
    8.4200   -4.2330    0.0000 N   0  0  0  0  0  0  0  0  0  0  0  0
    8.2310   -3.4253    0.0000 N   0  0  0  0  0  0  0  0  0  0  0  0
    9.5600   -3.5399    0.0000 N   0  0  0  0  0  0  0  0  0  0  0  0
    8.9356   -2.9957    0.0000 N   0  0  0  0  0  0  0  0  0  0  0  0
    9.6745   -5.0005    0.0000 C   0  0  0  0  0  0  0  0  0  0  0  0
    5.3327   -2.9442    0.0000 C   0  0  0  0  0  0  0  0  0  0  0  0
    9.2850   -5.7222    0.0000 C   0  0  0  0  0  0  0  0  0  0  0  0
    6.0716   -2.6005    0.0000 C   0  0  0  0  0  0  0  0  0  0  0  0
    5.4702   -1.3060    0.0000 C   0  0  0  0  0  0  0  0  0  0  0  0
    5.9800   -5.7795    0.0000 C   0  0  0  0  0  0  0  0  0  0  0  0
    6.1518   -1.7757    0.0000 C   0  0  0  0  0  0  0  0  0  0  0  0
    6.6845   -4.1241    0.0000 O   0  0  0  0  0  0  0  0  0  0  0  0
    8.4602   -5.7394    0.0000 C   0  0  0  0  0  0  0  0  0  0  0  0
    4.7255   -1.6554    0.0000 O   0  0  0  0  0  0  0  0  0  0  0  0
    8.0306   -5.0348    0.0000 C   0  0  0  0  0  0  0  0  0  0  0  0
    8.0592   -6.4611    0.0000 C   0  0  0  0  0  0  0  0  0  0  0  0
    6.8048   -5.7623    0.0000 C   0  0  0  0  0  0  0  0  0  0  0  0
    5.5389   -0.4869    0.0000 O   0  0  0  0  0  0  0  0  0  0  0  0
    4.1814   -5.6077    0.0000 C   0  0  0  0  0  0  0  0  0  0  0  0
    7.2230   -6.4669    0.0000 C   0  0  0  0  0  0  0  0  0  0  0  0
    7.2058   -5.0406    0.0000 C   0  0  0  0  0  0  0  0  0  0  0  0
   10.4993   -4.9833    0.0000 C   0  0  0  0  0  0  0  0  0  0  0  0
    9.6974   -6.4267    0.0000 C   0  0  0  0  0  0  0  0  0  0  0  0
    6.7532   -3.0759    0.0000 C   0  0  0  0  0  0  0  0  0  0  0  0
    6.8965   -1.4320    0.0000 C   0  0  0  0  0  0  0  0  0  0  0  0
    3.3738   -5.4530    0.0000 C   0  0  0  0  0  0  0  0  0  0  0  0
    2.8353   -6.0716    0.0000 C   0  0  0  0  0  0  0  0  0  0  0  0
   10.9289   -5.6764    0.0000 C   0  0  0  0  0  0  0  0  0  0  0  0
   10.5222   -6.4153    0.0000 C   0  0  0  0  0  0  0  0  0  0  0  0
    7.4979   -2.7208    0.0000 C   0  0  0  0  0  0  0  0  0  0  0  0
    7.5780   -1.9074    0.0000 C   0  0  0  0  0  0  0  0  0  0  0  0
    2.0277   -5.9112    0.0000 C   0  0  0  0  0  0  0  0  0  0  0  0
  2  1  1  0
  3  2  1  0
  4  5  2  0
  5  1  1  0
  6 11  1  0
  7  6  1  0
  8  7  1  0
  9  6  2  0
 10  9  1  0
 11 13  1  0
 12  3  1  0
 13 19  1  0
 14 12  1  0
 15 17  1  0
 16  1  1  0
 17 14  2  0
 18  2  2  0
 19 21  2  0
 20 15  2  0
 21 27  1  0
 22 26  2  0
 23 16  1  0
 24 15  1  0
 25  5  1  0
 26 23  1  0
 27 23  2  0
 28 11  2  0
 29 13  2  0
 30 14  1  0
 31 17  1  0
 32 25  1  0
 33 32  1  0
 34 35  2  0
 35 29  1  0
 36 30  2  0
 37 36  1  0
 38 33  1  0
  4  3  1  0
 19 22  1  0
 37 31  2  0
 28 34  1  0
  8 10  2  0
M  END
>  <From>  (1) 
www.bindingDB.org

>  <BindingDB Reactant_set_id>  (1) 
50060517

>  <Ligand InChI>  (1) 
InChI=1S/C28H27N7O3/c1-2-3-12-25-31-35(18-21-8-4-5-10-23(21)27(36)37)28(38)34(25)17-19-13-15-20(16-14-19)22-9-6-7-11-24(22)26-29-32-33-30-26/h4-11,13-16H,2-3,12,17-18H2,1H3,(H,36,37)(H,29,30,32,33)

>  <Ligand InChI Key>  (1) 
DCKMEXKESDPYIN-UHFFFAOYSA-N

>  <BindingDB MonomerID>  (1) 
50044497

>  <BindingDB Ligand Name>  (1) 
2-{3-Butyl-5-oxo-4-[2'-(2H-tetrazol-5-yl)-biphenyl-4-ylmethyl]-4,5-dihydro-[1,2,4]triazol-1-ylmethyl}-benzoic acid::CHEMBL314590

>  <Target Name>  (1) 
Type-1 angiotensin II receptor

>  <Target Source Organism According to Curator or DataSource>  (1) 
Oryctolagus cuniculus

>  <Ki (nM)>  (1) 


>  <IC50 (nM)>  (1) 
 14

>  <Kd (nM)>  (1) 


>  <EC50 (nM)>  (1) 


>  <kon (M-1-s-1)>  (1) 


>  <koff (s-1)>  (1) 


>  <pH>  (1) 


>  <Temp C>  (1) 


>  <Curation/DataSource>  (1) 
ChEMBL

>  <Article DOI>  (1) 
10.1021/jm00069a015

>  <BindingDB Entry DOI>  (1) 
10.7270/Q2KP817C

>  <PMID>  (1) 
8355255

>  <PubChem AID>  (1) 


>  <Patent Number>  (1) 


>  <Authors>  (1) 
Chang, LL; Ashton, WT; Flanagan, KL; Strelitz, RA; MacCoss, M; Greenlee, WJ; Chang, RS; Lotti, VJ; Faust, KA; Chen, TB

>  <Institution>  (1) 
Merck Research Laboratories

>  <Link to Ligand in BindingDB>  (1) 
http://www.bindingdb.org/bind/chemsearch/marvin/MolStructure.jsp?monomerid=50044497

>  <Link to Ligand-Target Pair in BindingDB>  (1) 
http://www.bindingdb.org/jsp/dbsearch/PrimarySearch_ki.jsp?energyterm=kJ/mole&tag=r21&monomerid=50044497&enzyme=Type-1+angiotensin+II+receptor&column=ki&startPg=0&Increment=50&submit=Search

>  <Ligand HET ID in PDB>  (1) 


>  <PDB ID(s) for Ligand-Target Complex>  (1) 


>  <PubChem CID of Ligand>  (1) 
14956799

>  <PubChem SID of Ligand>  (1) 
103975735

>  <ChEBI ID of Ligand>  (1) 


>  <ChEMBL ID of Ligand>  (1) 
CHEMBL314590

>  <DrugBank ID of Ligand>  (1) 


>  <IUPHAR_GRAC ID of Ligand>  (1) 


>  <KEGG ID of Ligand>  (1) 


>  <ZINC ID of Ligand>  (1) 
ZINC13832704

>  <Number of Protein Chains in Target (bigger than 1 implies a multichain complex)>  (1) 
1

>  <BindingDB Target Chain Sequence>  (1) 
MMLNSSTEDGIKRIQDDCPKAGRHNYIFVMIPTLYSIIFVVGIFGNSLAVIVIYFYMKLKTVASVFLLNLALADLCFLLTLPLWAVYTAMEYRWPFGNYLCKIASASVSFNLYASVFLLTCLSIDRYLAIVHPMKSRLRRTMLVAKVTCIIIWLLAGLASLPAIIHRNVFFIENTNITVCAFHYESQNSTLPIGLGLTKNILGFLFPFLIILTSYTLIWKALKKAYEIQKNKPRNDDIFKIIMAIVLFFFFSWVPHQIFTFLDVLIQLGVIHDCRIADIVDTAMPITICIAYFNNCLNPLFYGFLGKKFKKYFLQLLKYIPPKAKSHSNLSTKMSTLSYRPSDNVSSSSKKPVPCFEVE

>  <PDB ID(s) of Target Chain>  (1) 
6DO1,6OS0,6OS1,6OS2

>  <UniProt (SwissProt) Recommended Name of Target Chain>  (1) 
Type-1 angiotensin II receptor

>  <UniProt (SwissProt) Entry Name of Target Chain>  (1) 
AGTR1_RABIT

>  <UniProt (SwissProt) Primary ID of Target Chain>  (1) 
P34976

>  <UniProt (SwissProt) Secondary ID(s) of Target Chain>  (1) 


>  <UniProt (SwissProt) Alternative ID(s) of Target Chain>  (1) 


>  <UniProt (TrEMBL) Submitted Name of Target Chain>  (1) 


>  <UniProt (TrEMBL) Entry Name of Target Chain>  (1) 


>  <UniProt (TrEMBL) Primary ID of Target Chain>  (1) 


>  <UniProt (TrEMBL) Secondary ID(s) of Target Chain>  (1) 


>  <UniProt (TrEMBL) Alternative ID(s) of Target Chain>  (1) 


$$$$
