
     RDKit          2D

 39 43  0  0  0  0  0  0  0  0999 V2000
    8.5735  -11.1755    0.0000 S   0  0  0  0  0  0  0  0  0  0  0  0
    5.0207   -9.8995    0.0000 N   0  0  0  0  0  0  0  0  0  0  0  0
    5.6962   -9.4241    0.0000 C   0  0  0  0  0  0  0  0  0  0  0  0
    8.5693  -10.3499    0.0000 N   0  0  0  0  0  0  0  0  0  0  0  0
    4.6203   -8.6318    0.0000 N   0  0  0  0  0  0  0  0  0  0  0  0
    4.3576   -9.4116    0.0000 C   0  0  0  0  0  0  0  0  0  0  0  0
    5.4585   -8.6360    0.0000 C   0  0  0  0  0  0  0  0  0  0  0  0
    8.5693  -12.0012    0.0000 C   0  0  0  0  0  0  0  0  0  0  0  0
    9.2740   -9.9245    0.0000 C   0  0  0  0  0  0  0  0  0  0  0  0
    7.8479  -12.4015    0.0000 C   0  0  0  0  0  0  0  0  0  0  0  0
    7.7478  -11.1755    0.0000 O   0  0  0  0  0  0  0  0  0  0  0  0
    9.3991  -11.1755    0.0000 O   0  0  0  0  0  0  0  0  0  0  0  0
    5.0165  -10.7252    0.0000 C   0  0  0  0  0  0  0  0  0  0  0  0
    7.1431  -11.9886    0.0000 C   0  0  0  0  0  0  0  0  0  0  0  0
    6.4218   -9.7577    0.0000 O   0  0  0  0  0  0  0  0  0  0  0  0
    9.9954  -10.3373    0.0000 O   0  0  0  0  0  0  0  0  0  0  0  0
    6.2424   -7.1932    0.0000 S   0  0  0  0  0  0  0  0  0  0  0  0
    9.2740   -9.0989    0.0000 C   0  0  0  0  0  0  0  0  0  0  0  0
    6.2799   -8.6110    0.0000 C   0  0  0  0  0  0  0  0  0  0  0  0
    5.0290   -7.9355    0.0000 C   0  0  0  0  0  0  0  0  0  0  0  0
    6.4218  -12.3890    0.0000 C   0  0  0  0  0  0  0  0  0  0  0  0
    7.1473  -11.1588    0.0000 C   0  0  0  0  0  0  0  0  0  0  0  0
    5.7212  -11.1505    0.0000 C   0  0  0  0  0  0  0  0  0  0  0  0
    3.5695   -9.6618    0.0000 C   0  0  0  0  0  0  0  0  0  0  0  0
    6.4343  -10.7377    0.0000 C   0  0  0  0  0  0  0  0  0  0  0  0
    5.7087  -11.9761    0.0000 C   0  0  0  0  0  0  0  0  0  0  0  0
    9.2740  -12.4140    0.0000 C   0  0  0  0  0  0  0  0  0  0  0  0
    5.4168   -7.2099    0.0000 C   0  0  0  0  0  0  0  0  0  0  0  0
    6.6720   -7.8979    0.0000 C   0  0  0  0  0  0  0  0  0  0  0  0
    7.8437  -13.2354    0.0000 C   0  0  0  0  0  0  0  0  0  0  0  0
    9.9871   -8.6944    0.0000 C   0  0  0  0  0  0  0  0  0  0  0  0
    8.5567   -8.6986    0.0000 C   0  0  0  0  0  0  0  0  0  0  0  0
    2.9648   -9.0989    0.0000 C   0  0  0  0  0  0  0  0  0  0  0  0
    8.5567  -13.6525    0.0000 C   0  0  0  0  0  0  0  0  0  0  0  0
    9.2740  -13.2479    0.0000 C   0  0  0  0  0  0  0  0  0  0  0  0
    2.1767   -9.3491    0.0000 C   0  0  0  0  0  0  0  0  0  0  0  0
    8.5484   -7.8812    0.0000 C   0  0  0  0  0  0  0  0  0  0  0  0
    9.9829   -7.8687    0.0000 C   0  0  0  0  0  0  0  0  0  0  0  0
    9.2615   -7.4601    0.0000 C   0  0  0  0  0  0  0  0  0  0  0  0
  2 13  1  0
  3  2  1  0
  4  1  1  0
  5  6  2  0
  6  2  1  0
  7  3  1  0
  8  1  1  0
  9  4  1  0
 10  8  1  0
 11  1  2  0
 12  1  2  0
 13 23  1  0
 14 10  1  0
 15  3  2  0
 16  9  2  0
 17 28  1  0
 18  9  1  0
 19  7  1  0
 20  7  1  0
 21 14  2  0
 22 14  1  0
 23 25  1  0
 24  6  1  0
 25 22  2  0
 26 21  1  0
 27  8  2  0
 28 20  1  0
 29 19  1  0
 30 10  2  0
 31 18  2  0
 32 18  1  0
 33 24  1  0
 34 35  2  0
 35 27  1  0
 36 33  1  0
 37 32  2  0
 38 31  1  0
 39 37  1  0
 34 30  1  0
 26 23  2  0
 39 38  2  0
  5  7  1  0
 17 29  1  0
M  END
>  <From>  (1) 
www.bindingDB.org

>  <BindingDB Reactant_set_id>  (1) 
50468258

>  <Ligand InChI>  (1) 
InChI=1S/C30H31N3O4S2/c1-2-8-27-31-30(17-19-38-20-18-30)29(35)33(27)21-22-13-15-23(16-14-22)25-11-6-7-12-26(25)39(36,37)32-28(34)24-9-4-3-5-10-24/h3-7,9-16H,2,8,17-21H2,1H3,(H,32,34)

>  <Ligand InChI Key>  (1) 
PYPOKAAQTCYXDR-UHFFFAOYSA-N

>  <BindingDB MonomerID>  (1) 
50282735

>  <BindingDB Ligand Name>  (1) 
4'-(4-Oxo-2-propyl-8-thia-1,3-diaza-spiro[4.5]dec-1-en-3-ylmethyl)-biphenyl-2-sulfonic acid benzoylamide::CHEMBL39996

>  <Target Name>  (1) 
Type-1 angiotensin II receptor

>  <Target Source Organism According to Curator or DataSource>  (1) 
Homo sapiens

>  <Ki (nM)>  (1) 


>  <IC50 (nM)>  (1) 
 1

>  <Kd (nM)>  (1) 


>  <EC50 (nM)>  (1) 


>  <kon (M-1-s-1)>  (1) 


>  <koff (s-1)>  (1) 


>  <pH>  (1) 


>  <Temp C>  (1) 


>  <Curation/DataSource>  (1) 
ChEMBL

>  <Article DOI>  (1) 
10.1016/S0960-894X(01)80526-6

>  <BindingDB Entry DOI>  (1) 
10.7270/Q22V2G29

>  <PMID>  (1) 


>  <PubChem AID>  (1) 


>  <Patent Number>  (1) 


>  <Authors>  (1) 
Quan, ML; DeLucca, I; Boswell, GA; Chiu, AT; Wong, PC; Wexler, RR; Timmermans, PB

>  <Institution>  (1) 
TBA

>  <Link to Ligand in BindingDB>  (1) 
http://www.bindingdb.org/bind/chemsearch/marvin/MolStructure.jsp?monomerid=50282735

>  <Link to Ligand-Target Pair in BindingDB>  (1) 
http://www.bindingdb.org/jsp/dbsearch/PrimarySearch_ki.jsp?energyterm=kJ/mole&tag=r21&monomerid=50282735&enzyme=Type-1+angiotensin+II+receptor&column=ki&startPg=0&Increment=50&submit=Search

>  <Ligand HET ID in PDB>  (1) 


>  <PDB ID(s) for Ligand-Target Complex>  (1) 


>  <PubChem CID of Ligand>  (1) 
9850811

>  <PubChem SID of Ligand>  (1) 
104124409

>  <ChEBI ID of Ligand>  (1) 


>  <ChEMBL ID of Ligand>  (1) 
CHEMBL39996

>  <DrugBank ID of Ligand>  (1) 


>  <IUPHAR_GRAC ID of Ligand>  (1) 


>  <KEGG ID of Ligand>  (1) 


>  <ZINC ID of Ligand>  (1) 
ZINC29323549

>  <Number of Protein Chains in Target (bigger than 1 implies a multichain complex)>  (1) 
1

>  <BindingDB Target Chain Sequence>  (1) 
MILNSSTEDGIKRIQDDCPKAGRHNYIFVMIPTLYSIIFVVGIFGNSLVVIVIYFYMKLKTVASVFLLNLALADLCFLLTLPLWAVYTAMEYRWPFGNYLCKIASASVSFNLYASVFLLTCLSIDRYLAIVHPMKSRLRRTMLVAKVTCIIIWLLAGLASLPAIIHRNVFFIENTNITVCAFHYESQNSTLPIGLGLTKNILGFLFPFLIILTSYTLIWKALKKAYEIQKNKPRNDDIFKIIMAIVLFFFFSWIPHQIFTFLDVLIQLGIIRDCRIADIVDTAMPITICIAYFNNCLNPLFYGFLGKKFKRYFLQLLKYIPPKAKSHSNLSTKMSTLSYRPSDNVSSSTKKPAPCFEVE

>  <PDB ID(s) of Target Chain>  (1) 
6DO1,6OS0,6OS1,6OS2

>  <UniProt (SwissProt) Recommended Name of Target Chain>  (1) 
Type-1 angiotensin II receptor

>  <UniProt (SwissProt) Entry Name of Target Chain>  (1) 
AGTR1_HUMAN

>  <UniProt (SwissProt) Primary ID of Target Chain>  (1) 
P30556

>  <UniProt (SwissProt) Secondary ID(s) of Target Chain>  (1) 
Q13725 Q8TBK4

>  <UniProt (SwissProt) Alternative ID(s) of Target Chain>  (1) 


>  <UniProt (TrEMBL) Submitted Name of Target Chain>  (1) 


>  <UniProt (TrEMBL) Entry Name of Target Chain>  (1) 


>  <UniProt (TrEMBL) Primary ID of Target Chain>  (1) 


>  <UniProt (TrEMBL) Secondary ID(s) of Target Chain>  (1) 


>  <UniProt (TrEMBL) Alternative ID(s) of Target Chain>  (1) 


$$$$
