
     RDKit          2D

 30 33  0  0  0  0  0  0  0  0999 V2000
   11.6120   -2.0198    0.0000 N   0  0  0  0  0  0  0  0  0  0  0  0
   11.3560   -1.2289    0.0000 C   0  0  0  0  0  0  0  0  0  0  0  0
   10.2750   -2.0198    0.0000 N   0  0  0  0  0  0  0  0  0  0  0  0
   10.5310   -1.2346    0.0000 C   0  0  0  0  0  0  0  0  0  0  0  0
   10.9463   -2.4977    0.0000 C   0  0  0  0  0  0  0  0  0  0  0  0
   15.8961   -3.2999    0.0000 C   0  0  0  0  0  0  0  0  0  0  0  0
   15.4864   -2.5943    0.0000 C   0  0  0  0  0  0  0  0  0  0  0  0
   15.4864   -4.0281    0.0000 C   0  0  0  0  0  0  0  0  0  0  0  0
   12.1923   -2.5943    0.0000 C   0  0  0  0  0  0  0  0  0  0  0  0
   14.6614   -2.5943    0.0000 C   0  0  0  0  0  0  0  0  0  0  0  0
   11.8339   -0.5632    0.0000 O   0  0  0  0  0  0  0  0  0  0  0  0
   15.8961   -4.7336    0.0000 O   0  0  0  0  0  0  0  0  0  0  0  0
   14.2405   -3.3112    0.0000 C   0  0  0  0  0  0  0  0  0  0  0  0
   14.2405   -1.8775    0.0000 C   0  0  0  0  0  0  0  0  0  0  0  0
   13.0116   -2.5943    0.0000 C   0  0  0  0  0  0  0  0  0  0  0  0
   14.6614   -4.0281    0.0000 O   0  0  0  0  0  0  0  0  0  0  0  0
   13.4212   -1.8775    0.0000 C   0  0  0  0  0  0  0  0  0  0  0  0
   13.4212   -3.3112    0.0000 C   0  0  0  0  0  0  0  0  0  0  0  0
    9.7117   -1.2346    0.0000 C   0  0  0  0  0  0  0  0  0  0  0  0
   10.7870   -0.4495    0.0000 C   0  0  0  0  0  0  0  0  0  0  0  0
   10.9406   -3.3283    0.0000 C   0  0  0  0  0  0  0  0  0  0  0  0
   16.7153   -3.2999    0.0000 C   0  0  0  0  0  0  0  0  0  0  0  0
   15.8903   -1.8775    0.0000 C   0  0  0  0  0  0  0  0  0  0  0  0
   10.2295   -3.7379    0.0000 C   0  0  0  0  0  0  0  0  0  0  0  0
   10.2295   -4.5629    0.0000 C   0  0  0  0  0  0  0  0  0  0  0  0
    9.4614   -0.4495    0.0000 C   0  0  0  0  0  0  0  0  0  0  0  0
   10.1271    0.0284    0.0000 C   0  0  0  0  0  0  0  0  0  0  0  0
   17.1363   -2.5830    0.0000 C   0  0  0  0  0  0  0  0  0  0  0  0
   16.7153   -1.8661    0.0000 C   0  0  0  0  0  0  0  0  0  0  0  0
    9.5126   -4.9725    0.0000 C   0  0  0  0  0  0  0  0  0  0  0  0
  2  1  1  0
  3  5  1  0
  4  2  1  0
  5  1  1  0
  6  7  2  0
  7 10  1  0
  8  6  1  0
  9  1  1  0
 10 13  2  0
 11  2  2  0
 12  8  2  0
 13 18  1  0
 14 17  2  0
 15  9  1  0
 16  8  1  0
 17 15  1  0
 18 15  2  0
 19  4  1  0
 20  4  1  0
 21  5  1  0
 22  6  1  0
 23  7  1  0
 24 21  1  0
 25 24  1  0
 26 19  1  0
 27 20  1  0
 28 29  1  0
 29 23  2  0
 30 25  1  0
  3  4  1  0
 14 10  1  0
 27 26  1  0
 22 28  2  0
M  END
>  <From>  (1) 
www.bindingDB.org

>  <BindingDB Reactant_set_id>  (1) 
50067245

>  <Ligand InChI>  (1) 
InChI=1S/C25H30N2O3/c1-2-3-10-22-26-25(15-6-7-16-25)24(30)27(22)17-18-11-13-19(14-12-18)20-8-4-5-9-21(20)23(28)29/h4-5,8-9,11-14,22,26H,2-3,6-7,10,15-17H2,1H3,(H,28,29)

>  <Ligand InChI Key>  (1) 
XAAHVRZYKXNCEC-UHFFFAOYSA-N

>  <BindingDB MonomerID>  (1) 
50042255

>  <BindingDB Ligand Name>  (1) 
4'-(2-Butyl-4-oxo-1,3-diaza-spiro[4.4]non-3-ylmethyl)-biphenyl-2-carboxylic acid::CHEMBL324785

>  <Target Name>  (1) 
Type-1 angiotensin II receptor B

>  <Target Source Organism According to Curator or DataSource>  (1) 
Rattus

>  <Ki (nM)>  (1) 


>  <IC50 (nM)>  (1) 
 190

>  <Kd (nM)>  (1) 


>  <EC50 (nM)>  (1) 


>  <kon (M-1-s-1)>  (1) 


>  <koff (s-1)>  (1) 


>  <pH>  (1) 


>  <Temp C>  (1) 


>  <Curation/DataSource>  (1) 
ChEMBL

>  <Article DOI>  (1) 
10.1021/jm00074a018

>  <BindingDB Entry DOI>  (1) 
10.7270/Q22Z14M0

>  <PMID>  (1) 
8230127

>  <PubChem AID>  (1) 


>  <Patent Number>  (1) 


>  <Authors>  (1) 
Bernhart, CA; Perreaut, PM; Ferrari, BP; Muneaux, YA; Assens, JL; Clement, J; Haudricourt, F; Muneaux, CF; Taillades, JE; Vignal, MA

>  <Institution>  (1) 
Sanofi Recherche

>  <Link to Ligand in BindingDB>  (1) 
http://www.bindingdb.org/bind/chemsearch/marvin/MolStructure.jsp?monomerid=50042255

>  <Link to Ligand-Target Pair in BindingDB>  (1) 
http://www.bindingdb.org/jsp/dbsearch/PrimarySearch_ki.jsp?energyterm=kJ/mole&tag=r21&monomerid=50042255&enzyme=Type-1+angiotensin+II+receptor+B&column=ki&startPg=0&Increment=50&submit=Search

>  <Ligand HET ID in PDB>  (1) 


>  <PDB ID(s) for Ligand-Target Complex>  (1) 


>  <PubChem CID of Ligand>  (1) 
44341651

>  <PubChem SID of Ligand>  (1) 
103973863

>  <ChEBI ID of Ligand>  (1) 


>  <ChEMBL ID of Ligand>  (1) 
CHEMBL324785

>  <DrugBank ID of Ligand>  (1) 


>  <IUPHAR_GRAC ID of Ligand>  (1) 


>  <KEGG ID of Ligand>  (1) 


>  <ZINC ID of Ligand>  (1) 
ZINC13833599

>  <Number of Protein Chains in Target (bigger than 1 implies a multichain complex)>  (1) 
1

>  <BindingDB Target Chain Sequence>  (1) 
MTLNSSTEDGIKRIQDDCPKAGRHNYIFVMIPTLYSIIFVVGIFGNSLVVIVIYFYMKLKTVASVFLLNLALADLCFLLTLPLWAVYTAMEYRWPFGNHLCKIASASVSFNLYASVFLLTCLSIDRYLAIVHPMKSRLRRTMLVAKVTCIIIWLMAGLASLPAVIYRNVYFIENTNITVCAFHYESQNSTLPIGLGLTKNILGFVFPFLIILTSYTLIWKALKKAYKIQKNTPRNDDIFRIIMAIVLFFFFSWVPHQIFTFLDVLIQLGIIRDCEIADIVDTAMPITICIAYFNNCLNPLFYGFLGKKFKKYFLQLLKYIPPTAKSHAGLSTKMSTLSYRPSDNMSSSAKKSASFFEVE

>  <PDB ID(s) of Target Chain>  (1) 


>  <UniProt (SwissProt) Recommended Name of Target Chain>  (1) 
Type-1 angiotensin II receptor B

>  <UniProt (SwissProt) Entry Name of Target Chain>  (1) 
AGTRB_RAT

>  <UniProt (SwissProt) Primary ID of Target Chain>  (1) 
P29089

>  <UniProt (SwissProt) Secondary ID(s) of Target Chain>  (1) 


>  <UniProt (SwissProt) Alternative ID(s) of Target Chain>  (1) 


>  <UniProt (TrEMBL) Submitted Name of Target Chain>  (1) 


>  <UniProt (TrEMBL) Entry Name of Target Chain>  (1) 


>  <UniProt (TrEMBL) Primary ID of Target Chain>  (1) 


>  <UniProt (TrEMBL) Secondary ID(s) of Target Chain>  (1) 


>  <UniProt (TrEMBL) Alternative ID(s) of Target Chain>  (1) 


$$$$
