
     RDKit          2D

 38 41  0  0  0  0  0  0  0  0999 V2000
    4.1965   -0.0918    0.0000 S   0  0  0  0  0  0  0  0  0  0  0  0
    1.2557    1.5476    0.0000 C   0  0  0  0  0  0  0  0  0  0  0  0
    0.6049    1.0387    0.0000 N   0  0  0  0  0  0  0  0  0  0  0  0
    0.9803    2.3235    0.0000 C   0  0  0  0  0  0  0  0  0  0  0  0
    0.1502    2.3027    0.0000 N   0  0  0  0  0  0  0  0  0  0  0  0
    4.1923    0.7341    0.0000 N   0  0  0  0  0  0  0  0  0  0  0  0
   -0.0834    1.5100    0.0000 C   0  0  0  0  0  0  0  0  0  0  0  0
    4.2216   -0.9178    0.0000 C   0  0  0  0  0  0  0  0  0  0  0  0
    4.8974    1.1513    0.0000 C   0  0  0  0  0  0  0  0  0  0  0  0
    2.0566    1.3098    0.0000 C   0  0  0  0  0  0  0  0  0  0  0  0
    3.5208   -1.3558    0.0000 C   0  0  0  0  0  0  0  0  0  0  0  0
    0.6257    0.2127    0.0000 C   0  0  0  0  0  0  0  0  0  0  0  0
    3.3706   -0.1126    0.0000 O   0  0  0  0  0  0  0  0  0  0  0  0
    5.0225   -0.0793    0.0000 O   0  0  0  0  0  0  0  0  0  0  0  0
    2.7949   -0.9636    0.0000 C   0  0  0  0  0  0  0  0  0  0  0  0
    1.4517    3.0035    0.0000 Cl  0  0  0  0  0  0  0  0  0  0  0  0
    4.8974    1.9856    0.0000 O   0  0  0  0  0  0  0  0  0  0  0  0
    5.6232    0.7467    0.0000 C   0  0  0  0  0  0  0  0  0  0  0  0
    2.2443    0.5089    0.0000 O   0  0  0  0  0  0  0  0  0  0  0  0
    2.0941   -1.3933    0.0000 C   0  0  0  0  0  0  0  0  0  0  0  0
    2.7699   -0.1293    0.0000 C   0  0  0  0  0  0  0  0  0  0  0  0
    1.3516   -0.1794    0.0000 C   0  0  0  0  0  0  0  0  0  0  0  0
    2.6531    1.8772    0.0000 O   0  0  0  0  0  0  0  0  0  0  0  0
   -0.9094    1.5100    0.0000 C   0  0  0  0  0  0  0  0  0  0  0  0
    1.3683   -1.0054    0.0000 C   0  0  0  0  0  0  0  0  0  0  0  0
    2.0441    0.2586    0.0000 C   0  0  0  0  0  0  0  0  0  0  0  0
    4.9474   -1.3057    0.0000 C   0  0  0  0  0  0  0  0  0  0  0  0
    3.5458   -2.1817    0.0000 C   0  0  0  0  0  0  0  0  0  0  0  0
    6.3323    1.1722    0.0000 C   0  0  0  0  0  0  0  0  0  0  0  0
    5.6315   -0.0793    0.0000 C   0  0  0  0  0  0  0  0  0  0  0  0
   -1.3223    0.7967    0.0000 C   0  0  0  0  0  0  0  0  0  0  0  0
   -2.1400    0.7967    0.0000 C   0  0  0  0  0  0  0  0  0  0  0  0
    4.2716   -2.5697    0.0000 C   0  0  0  0  0  0  0  0  0  0  0  0
    4.9724   -2.1400    0.0000 C   0  0  0  0  0  0  0  0  0  0  0  0
   -2.5529    1.5100    0.0000 C   0  0  0  0  0  0  0  0  0  0  0  0
    6.3490   -0.4798    0.0000 C   0  0  0  0  0  0  0  0  0  0  0  0
    7.0498    0.7717    0.0000 C   0  0  0  0  0  0  0  0  0  0  0  0
    7.0624   -0.0626    0.0000 C   0  0  0  0  0  0  0  0  0  0  0  0
  2  3  1  0
  3 12  1  0
  4  2  2  0
  5  7  2  0
  6  1  1  0
  7  3  1  0
  8  1  1  0
  9  6  1  0
 10  2  1  0
 11  8  1  0
 12 22  1  0
 13  1  2  0
 14  1  2  0
 15 11  1  0
 16  4  1  0
 17  9  2  0
 18  9  1  0
 19 10  2  0
 20 15  2  0
 21 15  1  0
 22 26  1  0
 23 10  1  0
 24  7  1  0
 25 20  1  0
 26 21  2  0
 27  8  2  0
 28 11  2  0
 29 18  2  0
 30 18  1  0
 31 24  1  0
 32 31  1  0
 33 34  2  0
 34 27  1  0
 35 32  1  0
 36 30  2  0
 37 29  1  0
 38 36  1  0
 33 28  1  0
 25 22  2  0
 38 37  2  0
  5  4  1  0
M  END
>  <From>  (1) 
www.bindingDB.org

>  <BindingDB Reactant_set_id>  (1) 
50002757

>  <Ligand InChI>  (1) 
InChI=1S/C28H26ClN3O5S/c1-2-3-13-24-30-26(29)25(28(34)35)32(24)18-19-14-16-20(17-15-19)22-11-7-8-12-23(22)38(36,37)31-27(33)21-9-5-4-6-10-21/h4-12,14-17H,2-3,13,18H2,1H3,(H,31,33)(H,34,35)

>  <Ligand InChI Key>  (1) 
SSPMQQSXRJFYNN-UHFFFAOYSA-N

>  <BindingDB MonomerID>  (1) 
50282416

>  <BindingDB Ligand Name>  (1) 
3-(2'-Benzoylsulfamoyl-biphenyl-4-ylmethyl)-2-butyl-5-chloro-3H-imidazole-4-carboxylic acid::CHEMBL165354

>  <Target Name>  (1) 
Type-1 angiotensin II receptor

>  <Target Source Organism According to Curator or DataSource>  (1) 
Oryctolagus cuniculus

>  <Ki (nM)>  (1) 


>  <IC50 (nM)>  (1) 
 2

>  <Kd (nM)>  (1) 


>  <EC50 (nM)>  (1) 


>  <kon (M-1-s-1)>  (1) 


>  <koff (s-1)>  (1) 


>  <pH>  (1) 


>  <Temp C>  (1) 


>  <Curation/DataSource>  (1) 
ChEMBL

>  <Article DOI>  (1) 
10.1016/S0960-894X(01)81124-0

>  <BindingDB Entry DOI>  (1) 
10.7270/Q2NS0TVK

>  <PMID>  (1) 


>  <PubChem AID>  (1) 


>  <Patent Number>  (1) 


>  <Authors>  (1) 
Naylor, EM; Chakravarty, PK; Costello, CA; Chang, RS; Chen, TB; Faust, KA; Lotti, VJ; Kivlighn, SD; Zingaro, GJ; Siegl, PK; Wong, PC; Carini, DJ; Wexler, RR; Patchett, AA; Greenlee, WJ

>  <Institution>  (1) 
TBA

>  <Link to Ligand in BindingDB>  (1) 
http://www.bindingdb.org/bind/chemsearch/marvin/MolStructure.jsp?monomerid=50282416

>  <Link to Ligand-Target Pair in BindingDB>  (1) 
http://www.bindingdb.org/jsp/dbsearch/PrimarySearch_ki.jsp?energyterm=kJ/mole&tag=r21&monomerid=50282416&enzyme=Type-1+angiotensin+II+receptor&column=ki&startPg=0&Increment=50&submit=Search

>  <Ligand HET ID in PDB>  (1) 


>  <PDB ID(s) for Ligand-Target Complex>  (1) 


>  <PubChem CID of Ligand>  (1) 
19742811

>  <PubChem SID of Ligand>  (1) 
104124090

>  <ChEBI ID of Ligand>  (1) 


>  <ChEMBL ID of Ligand>  (1) 
CHEMBL165354

>  <DrugBank ID of Ligand>  (1) 


>  <IUPHAR_GRAC ID of Ligand>  (1) 


>  <KEGG ID of Ligand>  (1) 


>  <ZINC ID of Ligand>  (1) 
ZINC27855664

>  <Number of Protein Chains in Target (bigger than 1 implies a multichain complex)>  (1) 
1

>  <BindingDB Target Chain Sequence>  (1) 
MMLNSSTEDGIKRIQDDCPKAGRHNYIFVMIPTLYSIIFVVGIFGNSLAVIVIYFYMKLKTVASVFLLNLALADLCFLLTLPLWAVYTAMEYRWPFGNYLCKIASASVSFNLYASVFLLTCLSIDRYLAIVHPMKSRLRRTMLVAKVTCIIIWLLAGLASLPAIIHRNVFFIENTNITVCAFHYESQNSTLPIGLGLTKNILGFLFPFLIILTSYTLIWKALKKAYEIQKNKPRNDDIFKIIMAIVLFFFFSWVPHQIFTFLDVLIQLGVIHDCRIADIVDTAMPITICIAYFNNCLNPLFYGFLGKKFKKYFLQLLKYIPPKAKSHSNLSTKMSTLSYRPSDNVSSSSKKPVPCFEVE

>  <PDB ID(s) of Target Chain>  (1) 
6DO1,6OS0,6OS1,6OS2

>  <UniProt (SwissProt) Recommended Name of Target Chain>  (1) 
Type-1 angiotensin II receptor

>  <UniProt (SwissProt) Entry Name of Target Chain>  (1) 
AGTR1_RABIT

>  <UniProt (SwissProt) Primary ID of Target Chain>  (1) 
P34976

>  <UniProt (SwissProt) Secondary ID(s) of Target Chain>  (1) 


>  <UniProt (SwissProt) Alternative ID(s) of Target Chain>  (1) 


>  <UniProt (TrEMBL) Submitted Name of Target Chain>  (1) 


>  <UniProt (TrEMBL) Entry Name of Target Chain>  (1) 


>  <UniProt (TrEMBL) Primary ID of Target Chain>  (1) 


>  <UniProt (TrEMBL) Secondary ID(s) of Target Chain>  (1) 


>  <UniProt (TrEMBL) Alternative ID(s) of Target Chain>  (1) 


$$$$
