
     RDKit          2D

 33 37  0  0  0  0  0  0  0  0999 V2000
    0.1125   -9.0042    0.0000 N   0  0  0  0  0  0  0  0  0  0  0  0
    0.1042   -8.0375    0.0000 N   0  0  0  0  0  0  0  0  0  0  0  0
   -0.2458   -8.5250    0.0000 C   0  0  0  0  0  0  0  0  0  0  0  0
    2.4875  -11.1375    0.0000 C   0  0  0  0  0  0  0  0  0  0  0  0
    2.3417  -10.1750    0.0000 N   0  0  0  0  0  0  0  0  0  0  0  0
    0.6792   -8.8167    0.0000 C   0  0  0  0  0  0  0  0  0  0  0  0
    2.0667  -10.7042    0.0000 N   0  0  0  0  0  0  0  0  0  0  0  0
    2.9375  -10.2750    0.0000 N   0  0  0  0  0  0  0  0  0  0  0  0
    0.6792   -8.2167    0.0000 C   0  0  0  0  0  0  0  0  0  0  0  0
    3.0250  -10.8667    0.0000 N   0  0  0  0  0  0  0  0  0  0  0  0
    2.3042  -11.7042    0.0000 C   0  0  0  0  0  0  0  0  0  0  0  0
    1.7167  -11.8375    0.0000 C   0  0  0  0  0  0  0  0  0  0  0  0
    0.1125  -10.0625    0.0000 C   0  0  0  0  0  0  0  0  0  0  0  0
    1.2000   -9.1167    0.0000 C   0  0  0  0  0  0  0  0  0  0  0  0
    1.3167  -11.3917    0.0000 C   0  0  0  0  0  0  0  0  0  0  0  0
    0.7292  -11.5167    0.0000 C   0  0  0  0  0  0  0  0  0  0  0  0
    1.5000  -10.8167    0.0000 C   0  0  0  0  0  0  0  0  0  0  0  0
    0.5167  -10.5042    0.0000 C   0  0  0  0  0  0  0  0  0  0  0  0
   -0.8458   -8.5250    0.0000 C   0  0  0  0  0  0  0  0  0  0  0  0
    0.3292  -11.0792    0.0000 C   0  0  0  0  0  0  0  0  0  0  0  0
    1.1000  -10.3792    0.0000 C   0  0  0  0  0  0  0  0  0  0  0  0
    1.2000   -7.9167    0.0000 C   0  0  0  0  0  0  0  0  0  0  0  0
    2.7125  -12.1417    0.0000 C   0  0  0  0  0  0  0  0  0  0  0  0
    1.2000   -9.7167    0.0000 C   0  0  0  0  0  0  0  0  0  0  0  0
    1.5375  -12.4042    0.0000 C   0  0  0  0  0  0  0  0  0  0  0  0
    1.7167  -10.0167    0.0000 O   0  0  0  0  0  0  0  0  0  0  0  0
    1.7167   -8.8167    0.0000 C   0  0  0  0  0  0  0  0  0  0  0  0
    1.7167   -8.2167    0.0000 C   0  0  0  0  0  0  0  0  0  0  0  0
   -1.1458   -8.0042    0.0000 C   0  0  0  0  0  0  0  0  0  0  0  0
   -1.7458   -8.0042    0.0000 C   0  0  0  0  0  0  0  0  0  0  0  0
    1.9417  -12.8500    0.0000 C   0  0  0  0  0  0  0  0  0  0  0  0
    2.5292  -12.7250    0.0000 C   0  0  0  0  0  0  0  0  0  0  0  0
   -2.0458   -7.4917    0.0000 C   0  0  0  0  0  0  0  0  0  0  0  0
  2  3  2  0
  3  1  1  0
  4 11  1  0
  5  7  2  0
  6  1  1  0
  7  4  1  0
  8 10  1  0
  9  6  2  0
 10  4  2  0
 11 12  1  0
 12 15  1  0
 13  1  1  0
 14  6  1  0
 15 17  2  0
 16 20  2  0
 17 21  1  0
 18 13  1  0
 19  3  1  0
 20 18  1  0
 21 18  2  0
 22  9  1  0
 23 11  2  0
 24 14  1  0
 25 12  2  0
 26 24  1  0
 27 14  2  0
 28 27  1  0
 29 19  1  0
 30 29  1  0
 31 25  1  0
 32 31  2  0
 33 30  1  0
  9  2  1  0
 16 15  1  0
 28 22  2  0
 23 32  1  0
  8  5  1  0
M  END
>  <From>  (1) 
www.bindingDB.org

>  <BindingDB Reactant_set_id>  (1) 
51185844

>  <Ligand InChI>  (1) 
InChI=1S/C26H26N6O/c1-2-3-11-24-27-23-10-6-7-20(17-33)25(23)32(24)16-18-12-14-19(15-13-18)21-8-4-5-9-22(21)26-28-30-31-29-26/h4-10,12-15,33H,2-3,11,16-17H2,1H3,(H,28,29,30,31)

>  <Ligand InChI Key>  (1) 
RHWLMJVCTQINJS-UHFFFAOYSA-N

>  <BindingDB MonomerID>  (1) 
50487610

>  <BindingDB Ligand Name>  (1) 
CHEMBL52398

>  <Target Name>  (1) 
Type-1 angiotensin II receptor

>  <Target Source Organism According to Curator or DataSource>  (1) 
Bos taurus

>  <Ki (nM)>  (1) 


>  <IC50 (nM)>  (1) 
 450

>  <Kd (nM)>  (1) 


>  <EC50 (nM)>  (1) 


>  <kon (M-1-s-1)>  (1) 


>  <koff (s-1)>  (1) 


>  <pH>  (1) 


>  <Temp C>  (1) 


>  <Curation/DataSource>  (1) 
ChEMBL

>  <Article DOI>  (1) 
10.1007/s00044-009-9182-z

>  <BindingDB Entry DOI>  (1) 
10.7270/Q2RN3BR4

>  <PMID>  (1) 


>  <PubChem AID>  (1) 


>  <Patent Number>  (1) 


>  <Authors>  (1) 
n/a

>  <Institution>  (1) 
n/a

>  <Link to Ligand in BindingDB>  (1) 
http://www.bindingdb.org/bind/chemsearch/marvin/MolStructure.jsp?monomerid=50487610

>  <Link to Ligand-Target Pair in BindingDB>  (1) 
http://www.bindingdb.org/jsp/dbsearch/PrimarySearch_ki.jsp?energyterm=kJ/mole&tag=r21&monomerid=50487610&enzyme=Type-1+angiotensin+II+receptor&column=ki&startPg=0&Increment=50&submit=Search

>  <Ligand HET ID in PDB>  (1) 


>  <PDB ID(s) for Ligand-Target Complex>  (1) 


>  <PubChem CID of Ligand>  (1) 
19792159

>  <PubChem SID of Ligand>  (1) 
433954875

>  <ChEBI ID of Ligand>  (1) 


>  <ChEMBL ID of Ligand>  (1) 


>  <DrugBank ID of Ligand>  (1) 


>  <IUPHAR_GRAC ID of Ligand>  (1) 


>  <KEGG ID of Ligand>  (1) 


>  <ZINC ID of Ligand>  (1) 


>  <Number of Protein Chains in Target (bigger than 1 implies a multichain complex)>  (1) 
1

>  <BindingDB Target Chain Sequence>  (1) 
MILNSSTEDGIKRIQDDCPKAGRHNYIFIMIPTLYSIIFVVGIFGNSLVVIVIYFYMKLKTVASVFLLNLALADLCFLLTLPLWAVYTAMEYRWPFGNYLCKIASASVSFNLYASVFLLTCLSIDRYLAIVHPMKSRLRRTMLVAKVTCIIIWLLAGLASLPTIIHRNVFFIENTNITVCAFHYESQNSTLPVGLGLTKNILGFLFPFLIILTSYTLIWKTLKKAYEIQKNKPRKDDIFKIILAIVLFFFFSWVPHQIFTFMDVLIQLGLIRDCKIEDIVDTAMPITICLAYFNNCLNPLFYGFLGKKFKKYFLQLLKYIPPKAKSHSNLSTKMSTLSYRPSENGNSSTKKPAPCIEVE

>  <PDB ID(s) of Target Chain>  (1) 


>  <UniProt (SwissProt) Recommended Name of Target Chain>  (1) 
Type-1 angiotensin II receptor

>  <UniProt (SwissProt) Entry Name of Target Chain>  (1) 
AGTR1_BOVIN

>  <UniProt (SwissProt) Primary ID of Target Chain>  (1) 
P25104

>  <UniProt (SwissProt) Secondary ID(s) of Target Chain>  (1) 


>  <UniProt (SwissProt) Alternative ID(s) of Target Chain>  (1) 


>  <UniProt (TrEMBL) Submitted Name of Target Chain>  (1) 


>  <UniProt (TrEMBL) Entry Name of Target Chain>  (1) 


>  <UniProt (TrEMBL) Primary ID of Target Chain>  (1) 


>  <UniProt (TrEMBL) Secondary ID(s) of Target Chain>  (1) 


>  <UniProt (TrEMBL) Alternative ID(s) of Target Chain>  (1) 


$$$$
