
     RDKit          2D

 49 53  0  0  0  0  0  0  0  0999 V2000
    4.4325   -4.6834    0.0000 N   0  0  0  0  0  0  0  0  0  0  0  0
    8.0203   -4.0687    0.0000 S   0  0  0  0  0  0  0  0  0  0  0  0
    4.8967   -4.0018    0.0000 C   0  0  0  0  0  0  0  0  0  0  0  0
    4.3823   -3.3411    0.0000 N   0  0  0  0  0  0  0  0  0  0  0  0
    3.6045   -3.6380    0.0000 N   0  0  0  0  0  0  0  0  0  0  0  0
    7.6063   -3.3411    0.0000 N   0  0  0  0  0  0  0  0  0  0  0  0
    3.6380   -4.4576    0.0000 C   0  0  0  0  0  0  0  0  0  0  0  0
    8.0328   -2.6344    0.0000 C   0  0  0  0  0  0  0  0  0  0  0  0
    8.4217   -4.7963    0.0000 C   0  0  0  0  0  0  0  0  0  0  0  0
    8.8315   -2.4128    0.0000 C   0  0  0  0  0  0  0  0  0  0  0  0
    4.6081   -2.5508    0.0000 C   0  0  0  0  0  0  0  0  0  0  0  0
    8.0077   -5.5071    0.0000 C   0  0  0  0  0  0  0  0  0  0  0  0
    4.7210   -5.4612    0.0000 C   0  0  0  0  0  0  0  0  0  0  0  0
    7.2927   -4.4701    0.0000 O   0  0  0  0  0  0  0  0  0  0  0  0
    8.7353   -3.6631    0.0000 O   0  0  0  0  0  0  0  0  0  0  0  0
    4.0938   -1.9110    0.0000 C   0  0  0  0  0  0  0  0  0  0  0  0
    5.7246   -3.9683    0.0000 O   0  0  0  0  0  0  0  0  0  0  0  0
    4.1691    0.2760    0.0000 C   0  0  0  0  0  0  0  0  0  0  0  0
    3.8680   -0.4935    0.0000 N   0  0  0  0  0  0  0  0  0  0  0  0
    7.1881   -5.4946    0.0000 C   0  0  0  0  0  0  0  0  0  0  0  0
    9.0364   -1.6183    0.0000 C   0  0  0  0  0  0  0  0  0  0  0  0
    7.6272   -1.9110    0.0000 O   0  0  0  0  0  0  0  0  0  0  0  0
    4.3907   -1.1416    0.0000 C   0  0  0  0  0  0  0  0  0  0  0  0
    3.6547    0.9241    0.0000 O   0  0  0  0  0  0  0  0  0  0  0  0
    6.7784   -4.7712    0.0000 C   0  0  0  0  0  0  0  0  0  0  0  0
    6.7658   -6.2013    0.0000 C   0  0  0  0  0  0  0  0  0  0  0  0
    5.5448   -5.4737    0.0000 C   0  0  0  0  0  0  0  0  0  0  0  0
    8.4468   -1.0287    0.0000 Cl  0  0  0  0  0  0  0  0  0  0  0  0
    2.9899   -4.9719    0.0000 C   0  0  0  0  0  0  0  0  0  0  0  0
    5.9462   -6.1888    0.0000 C   0  0  0  0  0  0  0  0  0  0  0  0
    5.9587   -4.7712    0.0000 C   0  0  0  0  0  0  0  0  0  0  0  0
    9.4128   -2.9982    0.0000 C   0  0  0  0  0  0  0  0  0  0  0  0
    5.4235   -2.4253    0.0000 C   0  0  0  0  0  0  0  0  0  0  0  0
    9.2497   -4.8046    0.0000 C   0  0  0  0  0  0  0  0  0  0  0  0
    8.4092   -6.2264    0.0000 C   0  0  0  0  0  0  0  0  0  0  0  0
    5.7246   -1.6601    0.0000 C   0  0  0  0  0  0  0  0  0  0  0  0
    4.9845    0.4098    0.0000 C   0  0  0  0  0  0  0  0  0  0  0  0
    5.2103   -1.0161    0.0000 C   0  0  0  0  0  0  0  0  0  0  0  0
    9.8267   -1.3967    0.0000 C   0  0  0  0  0  0  0  0  0  0  0  0
    2.2204   -4.6666    0.0000 C   0  0  0  0  0  0  0  0  0  0  0  0
    5.5113   -0.2383    0.0000 C   0  0  0  0  0  0  0  0  0  0  0  0
    1.5681   -5.1810    0.0000 C   0  0  0  0  0  0  0  0  0  0  0  0
    6.3393   -0.2383    0.0000 C   0  0  0  0  0  0  0  0  0  0  0  0
   10.2114   -2.7766    0.0000 C   0  0  0  0  0  0  0  0  0  0  0  0
    9.2371   -6.2347    0.0000 C   0  0  0  0  0  0  0  0  0  0  0  0
    9.6594   -5.5239    0.0000 C   0  0  0  0  0  0  0  0  0  0  0  0
    0.8029   -4.8716    0.0000 C   0  0  0  0  0  0  0  0  0  0  0  0
    6.7491   -0.9534    0.0000 C   0  0  0  0  0  0  0  0  0  0  0  0
   10.4163   -1.9737    0.0000 C   0  0  0  0  0  0  0  0  0  0  0  0
  2  9  1  0
  3  1  1  0
  4  3  1  0
  5  7  2  0
  6  2  1  0
  7  1  1  0
  8  6  1  0
  9 12  1  0
 10  8  1  0
 11  4  1  0
 12 20  1  0
 13  1  1  0
 14  2  2  0
 15  2  2  0
 16 11  2  0
 17  3  2  0
 18 19  1  0
 19 23  1  0
 20 25  2  0
 21 10  2  0
 22  8  2  0
 23 16  1  0
 24 18  2  0
 25 31  1  0
 26 30  2  0
 27 13  1  0
 28 21  1  0
 29  7  1  0
 30 27  1  0
 31 27  2  0
 32 10  1  0
 33 11  1  0
 34  9  2  0
 35 12  2  0
 36 33  2  0
 37 18  1  0
 38 36  1  0
 39 21  1  0
 40 29  1  0
 41 37  1  0
 42 40  1  0
 43 41  1  0
 44 32  2  0
 45 35  1  0
 46 45  2  0
 47 42  1  0
 48 43  1  0
 49 44  1  0
  4  5  1  0
 26 20  1  0
 38 23  2  0
 46 34  1  0
 39 49  2  0
M  END
>  <From>  (1) 
www.bindingDB.org

>  <BindingDB Reactant_set_id>  (1) 
51075697

>  <Ligand InChI>  (1) 
InChI=1S/C37H38ClN5O5S/c1-3-5-18-34-40-43(29-13-11-12-28(24-29)39-35(44)19-6-4-2)37(46)42(34)25-26-20-22-27(23-21-26)30-14-8-10-17-33(30)49(47,48)41-36(45)31-15-7-9-16-32(31)38/h7-17,20-24H,3-6,18-19,25H2,1-2H3,(H,39,44)(H,41,45)

>  <Ligand InChI Key>  (1) 
BJEMGANDAVKDDB-UHFFFAOYSA-N

>  <BindingDB MonomerID>  (1) 
50035433

>  <BindingDB Ligand Name>  (1) 
CHEMBL140619::Pentanoic acid (3-{3-butyl-4-[2'-(2-chloro-benzoylsulfamoyl)-biphenyl-4-ylmethyl]-5-oxo-4,5-dihydro-[1,2,4]triazol-1-yl}-phenyl)-amide

>  <Target Name>  (1) 
Type-1 angiotensin II receptor

>  <Target Source Organism According to Curator or DataSource>  (1) 
Oryctolagus cuniculus

>  <Ki (nM)>  (1) 


>  <IC50 (nM)>  (1) 
 0.900000

>  <Kd (nM)>  (1) 


>  <EC50 (nM)>  (1) 


>  <kon (M-1-s-1)>  (1) 


>  <koff (s-1)>  (1) 


>  <pH>  (1) 


>  <Temp C>  (1) 


>  <Curation/DataSource>  (1) 
ChEMBL

>  <Article DOI>  (1) 
10.1007/s00044-013-0831-x

>  <BindingDB Entry DOI>  (1) 
10.7270/Q2C82BRJ

>  <PMID>  (1) 


>  <PubChem AID>  (1) 


>  <Patent Number>  (1) 


>  <Authors>  (1) 
n/a

>  <Institution>  (1) 
n/a

>  <Link to Ligand in BindingDB>  (1) 
http://www.bindingdb.org/bind/chemsearch/marvin/MolStructure.jsp?monomerid=50035433

>  <Link to Ligand-Target Pair in BindingDB>  (1) 
http://www.bindingdb.org/jsp/dbsearch/PrimarySearch_ki.jsp?energyterm=kJ/mole&tag=r21&monomerid=50035433&enzyme=Type-1+angiotensin+II+receptor&column=ki&startPg=0&Increment=50&submit=Search

>  <Ligand HET ID in PDB>  (1) 


>  <PDB ID(s) for Ligand-Target Complex>  (1) 


>  <PubChem CID of Ligand>  (1) 
10484866

>  <PubChem SID of Ligand>  (1) 
103943452

>  <ChEBI ID of Ligand>  (1) 


>  <ChEMBL ID of Ligand>  (1) 
CHEMBL140619

>  <DrugBank ID of Ligand>  (1) 


>  <IUPHAR_GRAC ID of Ligand>  (1) 


>  <KEGG ID of Ligand>  (1) 


>  <ZINC ID of Ligand>  (1) 
ZINC27520622

>  <Number of Protein Chains in Target (bigger than 1 implies a multichain complex)>  (1) 
1

>  <BindingDB Target Chain Sequence>  (1) 
MMLNSSTEDGIKRIQDDCPKAGRHNYIFVMIPTLYSIIFVVGIFGNSLAVIVIYFYMKLKTVASVFLLNLALADLCFLLTLPLWAVYTAMEYRWPFGNYLCKIASASVSFNLYASVFLLTCLSIDRYLAIVHPMKSRLRRTMLVAKVTCIIIWLLAGLASLPAIIHRNVFFIENTNITVCAFHYESQNSTLPIGLGLTKNILGFLFPFLIILTSYTLIWKALKKAYEIQKNKPRNDDIFKIIMAIVLFFFFSWVPHQIFTFLDVLIQLGVIHDCRIADIVDTAMPITICIAYFNNCLNPLFYGFLGKKFKKYFLQLLKYIPPKAKSHSNLSTKMSTLSYRPSDNVSSSSKKPVPCFEVE

>  <PDB ID(s) of Target Chain>  (1) 
6DO1,6OS0,6OS1,6OS2

>  <UniProt (SwissProt) Recommended Name of Target Chain>  (1) 
Type-1 angiotensin II receptor

>  <UniProt (SwissProt) Entry Name of Target Chain>  (1) 
AGTR1_RABIT

>  <UniProt (SwissProt) Primary ID of Target Chain>  (1) 
P34976

>  <UniProt (SwissProt) Secondary ID(s) of Target Chain>  (1) 


>  <UniProt (SwissProt) Alternative ID(s) of Target Chain>  (1) 


>  <UniProt (TrEMBL) Submitted Name of Target Chain>  (1) 


>  <UniProt (TrEMBL) Entry Name of Target Chain>  (1) 


>  <UniProt (TrEMBL) Primary ID of Target Chain>  (1) 


>  <UniProt (TrEMBL) Secondary ID(s) of Target Chain>  (1) 


>  <UniProt (TrEMBL) Alternative ID(s) of Target Chain>  (1) 


$$$$
