
     RDKit          2D

 28 31  0  0  0  0  0  0  0  0999 V2000
   12.0111  -17.0583    0.0000 C   0  0  0  0  0  0  0  0  0  0  0  0
   12.0099  -17.8857    0.0000 C   0  0  0  0  0  0  0  0  0  0  0  0
   12.7247  -18.2985    0.0000 C   0  0  0  0  0  0  0  0  0  0  0  0
   12.7229  -16.6455    0.0000 C   0  0  0  0  0  0  0  0  0  0  0  0
   13.4383  -17.0547    0.0000 C   0  0  0  0  0  0  0  0  0  0  0  0
   13.4386  -17.8811    0.0000 C   0  0  0  0  0  0  0  0  0  0  0  0
   14.2247  -18.1363    0.0000 N   0  0  0  0  0  0  0  0  0  0  0  0
   14.7103  -17.4675    0.0000 C   0  0  0  0  0  0  0  0  0  0  0  0
   14.2242  -16.7991    0.0000 N   0  0  0  0  0  0  0  0  0  0  0  0
   12.7266  -19.1258    0.0000 C   0  0  0  0  0  0  0  0  0  0  0  0
   12.0132  -19.5402    0.0000 O   0  0  0  0  0  0  0  0  0  0  0  0
   13.4421  -19.5364    0.0000 O   0  0  0  0  0  0  0  0  0  0  0  0
   14.4798  -18.9208    0.0000 C   0  0  0  0  0  0  0  0  0  0  0  0
   15.2868  -19.0921    0.0000 C   0  0  0  0  0  0  0  0  0  0  0  0
   15.5402  -19.8779    0.0000 C   0  0  0  0  0  0  0  0  0  0  0  0
   16.3464  -20.0494    0.0000 C   0  0  0  0  0  0  0  0  0  0  0  0
   16.8992  -19.4358    0.0000 C   0  0  0  0  0  0  0  0  0  0  0  0
   16.6401  -18.6480    0.0000 C   0  0  0  0  0  0  0  0  0  0  0  0
   15.8346  -18.4803    0.0000 C   0  0  0  0  0  0  0  0  0  0  0  0
   17.7064  -19.6060    0.0000 N   0  0  0  0  0  0  0  0  0  0  0  0
   18.0440  -20.3560    0.0000 C   0  0  0  0  0  0  0  0  0  0  0  0
   18.8644  -20.2685    0.0000 C   0  0  0  0  0  0  0  0  0  0  0  0
   19.0346  -19.4612    0.0000 C   0  0  0  0  0  0  0  0  0  0  0  0
   18.3194  -19.0499    0.0000 C   0  0  0  0  0  0  0  0  0  0  0  0
   18.2322  -18.2340    0.0000 C   0  0  0  0  0  0  0  0  0  0  0  0
   15.5353  -17.4672    0.0000 C   0  0  0  0  0  0  0  0  0  0  0  0
   18.8939  -17.7494    0.0000 O   0  0  0  0  0  0  0  0  0  0  0  0
   17.4807  -17.9005    0.0000 O   0  0  0  0  0  0  0  0  0  0  0  0
  3  6  2  0
 13 14  1  0
  1  2  2  0
 14 15  2  0
  5  4  2  0
 15 16  1  0
  6  7  1  0
 16 17  2  0
  7  8  1  0
 17 18  1  0
  8  9  2  0
 18 19  2  0
 19 14  1  0
  9  5  1  0
 17 20  1  0
 20 21  1  0
  4  1  1  0
  5  6  1  0
 10 11  1  0
 21 22  2  0
 22 23  1  0
 23 24  2  0
 24 20  1  0
 10 12  2  0
 24 25  1  0
  3 10  1  0
  8 26  1  0
  2  3  1  0
  7 13  1  0
 25 27  1  0
 25 28  2  0
M  END
>  <From>  (1) 
www.bindingDB.org

>  <BindingDB Reactant_set_id>  (1) 
50381239

>  <Ligand InChI>  (1) 
InChI=1S/C21H17N3O4/c1-13-22-17-5-2-4-16(20(25)26)19(17)24(13)12-14-7-9-15(10-8-14)23-11-3-6-18(23)21(27)28/h2-11H,12H2,1H3,(H,25,26)(H,27,28)

>  <Ligand InChI Key>  (1) 
YPWNUJLWQPHPNY-UHFFFAOYSA-N

>  <BindingDB MonomerID>  (1) 
50209822

>  <BindingDB Ligand Name>  (1) 
3-(4-(2-carboxy-1H-pyrrol-1-yl)benzyl)-2-methyl-3H-benzo[d]imidazole-4-carboxylic acid::CHEMBL442251

>  <Target Name>  (1) 
Type-1 angiotensin II receptor

>  <Target Source Organism According to Curator or DataSource>  (1) 
Bos taurus

>  <Ki (nM)>  (1) 


>  <IC50 (nM)>  (1) 
 250

>  <Kd (nM)>  (1) 


>  <EC50 (nM)>  (1) 


>  <kon (M-1-s-1)>  (1) 


>  <koff (s-1)>  (1) 


>  <pH>  (1) 


>  <Temp C>  (1) 


>  <Curation/DataSource>  (1) 
ChEMBL

>  <Article DOI>  (1) 
10.1016/j.bmcl.2007.02.042

>  <BindingDB Entry DOI>  (1) 
10.7270/Q2C82908

>  <PMID>  (1) 
17412584

>  <PubChem AID>  (1) 


>  <Patent Number>  (1) 


>  <Authors>  (1) 
Xu, JY; Zeng, Y; Ran, Q; Wei, Z; Bi, Y; He, QH; Wang, QJ; Hu, S; Zhang, J; Tang, MY; Hua, WY; Wu, XM

>  <Institution>  (1) 
China Pharmaceutical University

>  <Link to Ligand in BindingDB>  (1) 
http://www.bindingdb.org/bind/chemsearch/marvin/MolStructure.jsp?monomerid=50209822

>  <Link to Ligand-Target Pair in BindingDB>  (1) 
http://www.bindingdb.org/jsp/dbsearch/PrimarySearch_ki.jsp?energyterm=kJ/mole&tag=r21&monomerid=50209822&enzyme=Type-1+angiotensin+II+receptor&column=ki&startPg=0&Increment=50&submit=Search

>  <Ligand HET ID in PDB>  (1) 


>  <PDB ID(s) for Ligand-Target Complex>  (1) 


>  <PubChem CID of Ligand>  (1) 
44438902

>  <PubChem SID of Ligand>  (1) 
104086510

>  <ChEBI ID of Ligand>  (1) 


>  <ChEMBL ID of Ligand>  (1) 
CHEMBL442251

>  <DrugBank ID of Ligand>  (1) 


>  <IUPHAR_GRAC ID of Ligand>  (1) 


>  <KEGG ID of Ligand>  (1) 


>  <ZINC ID of Ligand>  (1) 
ZINC28885555

>  <Number of Protein Chains in Target (bigger than 1 implies a multichain complex)>  (1) 
1

>  <BindingDB Target Chain Sequence>  (1) 
MILNSSTEDGIKRIQDDCPKAGRHNYIFIMIPTLYSIIFVVGIFGNSLVVIVIYFYMKLKTVASVFLLNLALADLCFLLTLPLWAVYTAMEYRWPFGNYLCKIASASVSFNLYASVFLLTCLSIDRYLAIVHPMKSRLRRTMLVAKVTCIIIWLLAGLASLPTIIHRNVFFIENTNITVCAFHYESQNSTLPVGLGLTKNILGFLFPFLIILTSYTLIWKTLKKAYEIQKNKPRKDDIFKIILAIVLFFFFSWVPHQIFTFMDVLIQLGLIRDCKIEDIVDTAMPITICLAYFNNCLNPLFYGFLGKKFKKYFLQLLKYIPPKAKSHSNLSTKMSTLSYRPSENGNSSTKKPAPCIEVE

>  <PDB ID(s) of Target Chain>  (1) 


>  <UniProt (SwissProt) Recommended Name of Target Chain>  (1) 
Type-1 angiotensin II receptor

>  <UniProt (SwissProt) Entry Name of Target Chain>  (1) 
AGTR1_BOVIN

>  <UniProt (SwissProt) Primary ID of Target Chain>  (1) 
P25104

>  <UniProt (SwissProt) Secondary ID(s) of Target Chain>  (1) 


>  <UniProt (SwissProt) Alternative ID(s) of Target Chain>  (1) 


>  <UniProt (TrEMBL) Submitted Name of Target Chain>  (1) 


>  <UniProt (TrEMBL) Entry Name of Target Chain>  (1) 


>  <UniProt (TrEMBL) Primary ID of Target Chain>  (1) 


>  <UniProt (TrEMBL) Secondary ID(s) of Target Chain>  (1) 


>  <UniProt (TrEMBL) Alternative ID(s) of Target Chain>  (1) 


$$$$
