0402.cdx
     RDKit          2D

 38 43  0  0  0  0  0  0  0  0999 V2000
   -3.7203   -0.9590    0.0000 C   0  0  0  0  0  0  0  0  0  0  0  0
   -3.7203   -1.7840    0.0000 C   0  0  0  0  0  0  0  0  0  0  0  0
   -3.0059   -2.1965    0.0000 C   0  0  0  0  0  0  0  0  0  0  0  0
   -2.2914   -1.7840    0.0000 C   0  0  0  0  0  0  0  0  0  0  0  0
   -2.2914   -0.9590    0.0000 C   0  0  0  0  0  0  0  0  0  0  0  0
   -3.0059   -0.5465    0.0000 C   0  0  0  0  0  0  0  0  0  0  0  0
   -0.8624   -0.9590    0.0000 C   0  0  0  0  0  0  0  0  0  0  0  0
   -1.5769   -0.5465    0.0000 C   0  0  0  0  0  0  0  0  0  0  0  0
   -0.1480   -0.5465    0.0000 C   0  0  0  0  0  0  0  0  0  0  0  0
   -0.1480    0.2785    0.0000 C   0  0  0  0  0  0  0  0  0  0  0  0
   -0.8624    0.6910    0.0000 C   0  0  0  0  0  0  0  0  0  0  0  0
   -1.5769    0.2785    0.0000 C   0  0  0  0  0  0  0  0  0  0  0  0
   -1.5769   -2.1965    0.0000 C   0  0  0  0  0  0  0  0  0  0  0  0
    0.5665    0.6910    0.0000 C   0  0  0  0  0  0  0  0  0  0  0  0
    0.5665    1.5160    0.0000 N   0  0  0  0  0  0  0  0  0  0  0  0
    1.2810    1.9285    0.0000 C   0  0  0  0  0  0  0  0  0  0  0  0
    1.2810    2.7535    0.0000 N   0  0  0  0  0  0  0  0  0  0  0  0
    0.5665    3.1660    0.0000 C   0  0  0  0  0  0  0  0  0  0  0  0
   -0.1480    2.7535    0.0000 C   0  0  0  0  0  0  0  0  0  0  0  0
   -0.1480    1.9285    0.0000 C   0  0  0  0  0  0  0  0  0  0  0  0
   -0.9326    3.0084    0.0000 C   0  0  0  0  0  0  0  0  0  0  0  0
   -1.4175    2.3410    0.0000 C   0  0  0  0  0  0  0  0  0  0  0  0
   -0.9326    1.6735    0.0000 S   0  0  0  0  0  0  0  0  0  0  0  0
   -2.2425    2.3410    0.0000 C   0  0  0  0  0  0  0  0  0  0  0  0
    1.9954    3.1660    0.0000 C   0  0  0  0  0  0  0  0  0  0  0  0
    1.9954    1.5160    0.0000 O   0  0  0  0  0  0  0  0  0  0  0  0
    0.5665    3.9910    0.0000 O   0  0  0  0  0  0  0  0  0  0  0  0
   -1.5769   -3.0215    0.0000 N   0  0  0  0  0  0  0  0  0  0  0  0
   -0.7923   -3.2765    0.0000 C   0  0  0  0  0  0  0  0  0  0  0  0
   -0.3074   -2.6090    0.0000 O   0  0  0  0  0  0  0  0  0  0  0  0
   -0.7923   -1.9416    0.0000 N   0  0  0  0  0  0  0  0  0  0  0  0
   -0.3798   -3.9910    0.0000 O   0  0  0  0  0  0  0  0  0  0  0  0
   -2.6550    3.0554    0.0000 C   0  0  0  0  0  0  0  0  0  0  0  0
    2.7099    2.7535    0.0000 C   0  0  0  0  0  0  0  0  0  0  0  0
    2.9234    1.9566    0.0000 C   0  0  0  0  0  0  0  0  0  0  0  0
    3.7203    2.1701    0.0000 O   0  0  0  0  0  0  0  0  0  0  0  0
    3.5068    2.9670    0.0000 C   0  0  0  0  0  0  0  0  0  0  0  0
    2.7099    3.5785    0.0000 C   0  0  0  0  0  0  0  0  0  0  0  0
  1  2  2  0
  2  3  1  0
  3  4  2  0
  4  5  1  0
  5  6  2  0
  6  1  1  0
  4 13  1  0
  7  8  2  0
  8  5  1  0
  7  9  1  0
  9 10  2  0
 10 11  1  0
 11 12  2  0
 12  8  1  0
 10 14  1  0
 14 15  1  0
 15 16  1  0
 16 17  1  0
 17 18  1  0
 18 19  1  0
 19 20  2  0
 20 15  1  0
 19 21  1  0
 21 22  2  0
 22 23  1  0
 23 20  1  0
 22 24  1  0
 17 25  1  0
 16 26  2  0
 18 27  2  0
 13 28  2  0
 28 29  1  0
 29 30  1  0
 30 31  1  0
 31 13  1  0
 29 32  2  0
 24 33  1  0
 25 34  1  0
 34 35  1  0
 35 36  1  0
 36 37  1  0
 37 34  1  0
 34 38  1  0
M  END
>  <From>  (1) 
www.bindingDB.org

>  <BindingDB Reactant_set_id>  (1) 
216966

>  <Ligand InChI>  (1) 
InChI=1S/C28H26N4O5S/c1-3-19-12-22-24(33)32(14-28(2)15-36-16-28)27(35)31(25(22)38-19)13-17-8-10-18(11-9-17)20-6-4-5-7-21(20)23-29-26(34)37-30-23/h4-12H,3,13-16H2,1-2H3,(H,29,30,34)

>  <Ligand InChI Key>  (1) 
XQMZPSMSXVEEFK-UHFFFAOYSA-N

>  <BindingDB MonomerID>  (1) 
99968

>  <BindingDB Ligand Name>  (1) 
US8501750, 144

>  <Target Name>  (1) 
Type-1 angiotensin II receptor

>  <Target Source Organism According to Curator or DataSource>  (1) 
Homo sapiens

>  <Ki (nM)>  (1) 


>  <IC50 (nM)>  (1) 
 1.7

>  <Kd (nM)>  (1) 


>  <EC50 (nM)>  (1) 


>  <kon (M-1-s-1)>  (1) 


>  <koff (s-1)>  (1) 


>  <pH>  (1) 


>  <Temp C>  (1) 


>  <Curation/DataSource>  (1) 
US Patent

>  <Article DOI>  (1) 


>  <BindingDB Entry DOI>  (1) 
10.7270/Q2F76B5Q

>  <PMID>  (1) 


>  <PubChem AID>  (1) 
aid1800000

>  <Patent Number>  (1) 
US8501750

>  <Authors>  (1) 
Kuroita, T; Igawa, H; Sakamoto, H; Asano, K; Sasaki, M

>  <Institution>  (1) 
Takeda Pharmaceutical Co., Ltd

>  <Link to Ligand in BindingDB>  (1) 
http://www.bindingdb.org/bind/chemsearch/marvin/MolStructure.jsp?monomerid=99968

>  <Link to Ligand-Target Pair in BindingDB>  (1) 
http://www.bindingdb.org/jsp/dbsearch/PrimarySearch_ki.jsp?energyterm=kJ/mole&tag=r21&monomerid=99968&enzyme=Type-1+angiotensin+II+receptor&column=ki&startPg=0&Increment=50&submit=Search

>  <Ligand HET ID in PDB>  (1) 


>  <PDB ID(s) for Ligand-Target Complex>  (1) 


>  <PubChem CID of Ligand>  (1) 
59351683

>  <PubChem SID of Ligand>  (1) 
164041212

>  <ChEBI ID of Ligand>  (1) 


>  <ChEMBL ID of Ligand>  (1) 


>  <DrugBank ID of Ligand>  (1) 


>  <IUPHAR_GRAC ID of Ligand>  (1) 


>  <KEGG ID of Ligand>  (1) 


>  <ZINC ID of Ligand>  (1) 
ZINC96169980

>  <Number of Protein Chains in Target (bigger than 1 implies a multichain complex)>  (1) 
1

>  <BindingDB Target Chain Sequence>  (1) 
MILNSSTEDGIKRIQDDCPKAGRHNYIFVMIPTLYSIIFVVGIFGNSLVVIVIYFYMKLKTVASVFLLNLALADLCFLLTLPLWAVYTAMEYRWPFGNYLCKIASASVSFNLYASVFLLTCLSIDRYLAIVHPMKSRLRRTMLVAKVTCIIIWLLAGLASLPAIIHRNVFFIENTNITVCAFHYESQNSTLPIGLGLTKNILGFLFPFLIILTSYTLIWKALKKAYEIQKNKPRNDDIFKIIMAIVLFFFFSWIPHQIFTFLDVLIQLGIIRDCRIADIVDTAMPITICIAYFNNCLNPLFYGFLGKKFKRYFLQLLKYIPPKAKSHSNLSTKMSTLSYRPSDNVSSSTKKPAPCFEVE

>  <PDB ID(s) of Target Chain>  (1) 
6DO1,6OS0,6OS1,6OS2

>  <UniProt (SwissProt) Recommended Name of Target Chain>  (1) 
Type-1 angiotensin II receptor

>  <UniProt (SwissProt) Entry Name of Target Chain>  (1) 
AGTR1_HUMAN

>  <UniProt (SwissProt) Primary ID of Target Chain>  (1) 
P30556

>  <UniProt (SwissProt) Secondary ID(s) of Target Chain>  (1) 
Q13725 Q8TBK4

>  <UniProt (SwissProt) Alternative ID(s) of Target Chain>  (1) 


>  <UniProt (TrEMBL) Submitted Name of Target Chain>  (1) 


>  <UniProt (TrEMBL) Entry Name of Target Chain>  (1) 


>  <UniProt (TrEMBL) Primary ID of Target Chain>  (1) 


>  <UniProt (TrEMBL) Secondary ID(s) of Target Chain>  (1) 


>  <UniProt (TrEMBL) Alternative ID(s) of Target Chain>  (1) 


$$$$
