
     RDKit          2D

 46 50  0  0  0  0  0  0  0  0999 V2000
    2.6708   -1.6850    0.0000 N   0  0  0  0  0  0  0  0  0  0  0  0
    2.2581   -2.9631    0.0000 N   0  0  0  0  0  0  0  0  0  0  0  0
    2.9287   -2.4759    0.0000 C   0  0  0  0  0  0  0  0  0  0  0  0
    5.8286   -4.1952    0.0000 S   0  0  0  0  0  0  0  0  0  0  0  0
    1.8455   -1.6907    0.0000 N   0  0  0  0  0  0  0  0  0  0  0  0
    1.5876   -2.4759    0.0000 C   0  0  0  0  0  0  0  0  0  0  0  0
    5.8172   -3.3699    0.0000 N   0  0  0  0  0  0  0  0  0  0  0  0
    2.8197   -0.2809    0.0000 C   0  0  0  0  0  0  0  0  0  0  0  0
    3.1522   -1.0202    0.0000 C   0  0  0  0  0  0  0  0  0  0  0  0
    1.9944   -0.1949    0.0000 C   0  0  0  0  0  0  0  0  0  0  0  0
    5.8286   -5.0091    0.0000 C   0  0  0  0  0  0  0  0  0  0  0  0
    5.1122   -5.4331    0.0000 C   0  0  0  0  0  0  0  0  0  0  0  0
    2.2581   -3.7883    0.0000 C   0  0  0  0  0  0  0  0  0  0  0  0
    6.5335   -2.9459    0.0000 C   0  0  0  0  0  0  0  0  0  0  0  0
    6.6539   -4.1952    0.0000 O   0  0  0  0  0  0  0  0  0  0  0  0
    5.0033   -4.1952    0.0000 O   0  0  0  0  0  0  0  0  0  0  0  0
    3.7138   -2.7223    0.0000 O   0  0  0  0  0  0  0  0  0  0  0  0
    4.4015   -5.0205    0.0000 C   0  0  0  0  0  0  0  0  0  0  0  0
    7.2442   -3.3585    0.0000 O   0  0  0  0  0  0  0  0  0  0  0  0
    1.2437   -0.1204    0.0000 F   0  0  0  0  0  0  0  0  0  0  0  0
    1.5188    0.5272    0.0000 F   0  0  0  0  0  0  0  0  0  0  0  0
    1.3813   -0.8081    0.0000 F   0  0  0  0  0  0  0  0  0  0  0  0
    4.4015   -4.1838    0.0000 C   0  0  0  0  0  0  0  0  0  0  0  0
    3.6852   -5.4331    0.0000 C   0  0  0  0  0  0  0  0  0  0  0  0
    2.9745   -4.1952    0.0000 C   0  0  0  0  0  0  0  0  0  0  0  0
    6.5221   -2.1206    0.0000 C   0  0  0  0  0  0  0  0  0  0  0  0
    0.8081   -2.7223    0.0000 C   0  0  0  0  0  0  0  0  0  0  0  0
    3.3012    0.3897    0.0000 C   0  0  0  0  0  0  0  0  0  0  0  0
    2.9745   -5.0205    0.0000 C   0  0  0  0  0  0  0  0  0  0  0  0
    3.6852   -3.7826    0.0000 C   0  0  0  0  0  0  0  0  0  0  0  0
    3.9717   -1.1062    0.0000 C   0  0  0  0  0  0  0  0  0  0  0  0
    7.2385   -1.7079    0.0000 C   0  0  0  0  0  0  0  0  0  0  0  0
    6.5393   -5.4217    0.0000 C   0  0  0  0  0  0  0  0  0  0  0  0
    5.1122   -6.2584    0.0000 C   0  0  0  0  0  0  0  0  0  0  0  0
    7.9492   -2.1148    0.0000 C   0  0  0  0  0  0  0  0  0  0  0  0
    0.1949   -2.1722    0.0000 C   0  0  0  0  0  0  0  0  0  0  0  0
    8.0466   -2.9287    0.0000 C   0  0  0  0  0  0  0  0  0  0  0  0
    8.7057   -1.7709    0.0000 C   0  0  0  0  0  0  0  0  0  0  0  0
   -0.5960   -2.4301    0.0000 C   0  0  0  0  0  0  0  0  0  0  0  0
    4.1150    0.3037    0.0000 C   0  0  0  0  0  0  0  0  0  0  0  0
    4.4531   -0.4528    0.0000 C   0  0  0  0  0  0  0  0  0  0  0  0
    6.5507   -6.2470    0.0000 C   0  0  0  0  0  0  0  0  0  0  0  0
    5.8344   -6.6711    0.0000 C   0  0  0  0  0  0  0  0  0  0  0  0
   -1.2035   -1.8799    0.0000 C   0  0  0  0  0  0  0  0  0  0  0  0
    9.2559   -2.3785    0.0000 C   0  0  0  0  0  0  0  0  0  0  0  0
    8.8547   -3.0948    0.0000 C   0  0  0  0  0  0  0  0  0  0  0  0
  2  3  1  0
  3  1  1  0
  4 11  1  0
  5  1  1  0
  6  5  2  0
  7  4  1  0
  8  9  2  0
  9  1  1  0
 10  8  1  0
 11 12  1  0
 12 18  1  0
 13  2  1  0
 14  7  1  0
 15  4  2  0
 16  4  2  0
 17  3  2  0
 18 23  2  0
 19 14  2  0
 20 10  1  0
 21 10  1  0
 22 10  1  0
 23 30  1  0
 24 29  2  0
 25 13  1  0
 26 14  1  0
 27  6  1  0
 28  8  1  0
 29 25  1  0
 30 25  2  0
 31  9  1  0
 32 26  1  0
 33 11  2  0
 34 12  2  0
 35 32  1  0
 36 27  1  0
 37 35  1  0
 38 35  1  0
 39 36  1  0
 40 41  1  0
 41 31  2  0
 42 43  2  0
 43 34  1  0
 44 39  1  0
 45 38  1  0
 46 37  1  0
  2  6  1  0
 40 28  2  0
 18 24  1  0
 42 33  1  0
 45 46  1  0
M  END
>  <From>  (1) 
www.bindingDB.org

>  <BindingDB Reactant_set_id>  (1) 
50036528

>  <Ligand InChI>  (1) 
InChI=1S/C34H37F3N4O4S/c1-2-3-16-31-38-41(29-14-8-7-13-28(29)34(35,36)37)33(43)40(31)23-25-17-20-26(21-18-25)27-12-6-9-15-30(27)46(44,45)39-32(42)22-19-24-10-4-5-11-24/h6-9,12-15,17-18,20-21,24H,2-5,10-11,16,19,22-23H2,1H3,(H,39,42)

>  <Ligand InChI Key>  (1) 
NIOFBGYJFARBSF-UHFFFAOYSA-N

>  <BindingDB MonomerID>  (1) 
50039851

>  <BindingDB Ligand Name>  (1) 
4'-[3-Butyl-5-oxo-1-(2-trifluoromethyl-phenyl)-1,5-dihydro-[1,2,4]triazol-4-ylmethyl]-biphenyl-2-sulfonic acid (3-cyclopentyl-propionyl)-amide::CHEMBL314514

>  <Target Name>  (1) 
Type-1 angiotensin II receptor

>  <Target Source Organism According to Curator or DataSource>  (1) 
Oryctolagus cuniculus

>  <Ki (nM)>  (1) 


>  <IC50 (nM)>  (1) 
 1.2

>  <Kd (nM)>  (1) 


>  <EC50 (nM)>  (1) 


>  <kon (M-1-s-1)>  (1) 


>  <koff (s-1)>  (1) 


>  <pH>  (1) 


>  <Temp C>  (1) 


>  <Curation/DataSource>  (1) 
ChEMBL

>  <Article DOI>  (1) 
10.1021/jm00043a020

>  <BindingDB Entry DOI>  (1) 
10.7270/Q2M907QM

>  <PMID>  (1) 
8064808

>  <PubChem AID>  (1) 


>  <Patent Number>  (1) 


>  <Authors>  (1) 
Ashton, WT; Chang, LL; Flanagan, KL; Hutchins, SM; Naylor, EM; Chakravarty, PK; Patchett, AA; Greenlee, WJ; Chen, TB; Faust, KA

>  <Institution>  (1) 
Merck Research Laboratories

>  <Link to Ligand in BindingDB>  (1) 
http://www.bindingdb.org/bind/chemsearch/marvin/MolStructure.jsp?monomerid=50039851

>  <Link to Ligand-Target Pair in BindingDB>  (1) 
http://www.bindingdb.org/jsp/dbsearch/PrimarySearch_ki.jsp?energyterm=kJ/mole&tag=r21&monomerid=50039851&enzyme=Type-1+angiotensin+II+receptor&column=ki&startPg=0&Increment=50&submit=Search

>  <Ligand HET ID in PDB>  (1) 


>  <PDB ID(s) for Ligand-Target Complex>  (1) 


>  <PubChem CID of Ligand>  (1) 
10078048

>  <PubChem SID of Ligand>  (1) 
103947046

>  <ChEBI ID of Ligand>  (1) 


>  <ChEMBL ID of Ligand>  (1) 
CHEMBL314514

>  <DrugBank ID of Ligand>  (1) 


>  <IUPHAR_GRAC ID of Ligand>  (1) 


>  <KEGG ID of Ligand>  (1) 


>  <ZINC ID of Ligand>  (1) 
ZINC26673794

>  <Number of Protein Chains in Target (bigger than 1 implies a multichain complex)>  (1) 
1

>  <BindingDB Target Chain Sequence>  (1) 
MMLNSSTEDGIKRIQDDCPKAGRHNYIFVMIPTLYSIIFVVGIFGNSLAVIVIYFYMKLKTVASVFLLNLALADLCFLLTLPLWAVYTAMEYRWPFGNYLCKIASASVSFNLYASVFLLTCLSIDRYLAIVHPMKSRLRRTMLVAKVTCIIIWLLAGLASLPAIIHRNVFFIENTNITVCAFHYESQNSTLPIGLGLTKNILGFLFPFLIILTSYTLIWKALKKAYEIQKNKPRNDDIFKIIMAIVLFFFFSWVPHQIFTFLDVLIQLGVIHDCRIADIVDTAMPITICIAYFNNCLNPLFYGFLGKKFKKYFLQLLKYIPPKAKSHSNLSTKMSTLSYRPSDNVSSSSKKPVPCFEVE

>  <PDB ID(s) of Target Chain>  (1) 
6DO1,6OS0,6OS1,6OS2

>  <UniProt (SwissProt) Recommended Name of Target Chain>  (1) 
Type-1 angiotensin II receptor

>  <UniProt (SwissProt) Entry Name of Target Chain>  (1) 
AGTR1_RABIT

>  <UniProt (SwissProt) Primary ID of Target Chain>  (1) 
P34976

>  <UniProt (SwissProt) Secondary ID(s) of Target Chain>  (1) 


>  <UniProt (SwissProt) Alternative ID(s) of Target Chain>  (1) 


>  <UniProt (TrEMBL) Submitted Name of Target Chain>  (1) 


>  <UniProt (TrEMBL) Entry Name of Target Chain>  (1) 


>  <UniProt (TrEMBL) Primary ID of Target Chain>  (1) 


>  <UniProt (TrEMBL) Secondary ID(s) of Target Chain>  (1) 


>  <UniProt (TrEMBL) Alternative ID(s) of Target Chain>  (1) 


$$$$
