
     RDKit          2D

 41 46  0  0  0  0  0  0  0  0999 V2000
    6.9042   -2.0917    0.0000 N   0  0  0  0  0  0  0  0  0  0  0  0
    6.1917   -2.5125    0.0000 C   0  0  0  0  0  0  0  0  0  0  0  0
    5.4792   -2.1000    0.0000 C   0  0  0  0  0  0  0  0  0  0  0  0
    6.9042   -1.2667    0.0000 C   0  0  0  0  0  0  0  0  0  0  0  0
    6.1875   -0.8542    0.0000 N   0  0  0  0  0  0  0  0  0  0  0  0
    2.0167   -2.7792    0.0000 C   0  0  0  0  0  0  0  0  0  0  0  0
    9.0667   -5.7792    0.0000 C   0  0  0  0  0  0  0  0  0  0  0  0
    2.4292   -3.5000    0.0000 N   0  0  0  0  0  0  0  0  0  0  0  0
   10.3000   -5.0667    0.0000 N   0  0  0  0  0  0  0  0  0  0  0  0
    9.4750   -5.0667    0.0000 N   0  0  0  0  0  0  0  0  0  0  0  0
   10.7042   -5.7792    0.0000 N   0  0  0  0  0  0  0  0  0  0  0  0
    5.4792   -1.2750    0.0000 C   0  0  0  0  0  0  0  0  0  0  0  0
    9.7792   -6.1917    0.0000 N   0  0  0  0  0  0  0  0  0  0  0  0
    4.7625   -2.5167    0.0000 C   0  0  0  0  0  0  0  0  0  0  0  0
    3.2375   -3.3292    0.0000 O   0  0  0  0  0  0  0  0  0  0  0  0
    8.3542   -6.2042    0.0000 C   0  0  0  0  0  0  0  0  0  0  0  0
    2.5792   -2.1667    0.0000 C   0  0  0  0  0  0  0  0  0  0  0  0
    1.2000   -2.6875    0.0000 C   0  0  0  0  0  0  0  0  0  0  0  0
    7.6417   -5.8000    0.0000 C   0  0  0  0  0  0  0  0  0  0  0  0
    3.3292   -2.5125    0.0000 C   0  0  0  0  0  0  0  0  0  0  0  0
    4.0500   -2.1042    0.0000 C   0  0  0  0  0  0  0  0  0  0  0  0
    7.6250   -2.5042    0.0000 C   0  0  0  0  0  0  0  0  0  0  0  0
    6.1917   -3.3375    0.0000 O   0  0  0  0  0  0  0  0  0  0  0  0
    7.6375   -4.9750    0.0000 C   0  0  0  0  0  0  0  0  0  0  0  0
    4.7625   -0.8625    0.0000 C   0  0  0  0  0  0  0  0  0  0  0  0
    0.8667   -1.9292    0.0000 O   0  0  0  0  0  0  0  0  0  0  0  0
    4.0500   -1.2750    0.0000 C   0  0  0  0  0  0  0  0  0  0  0  0
    6.9167   -4.5667    0.0000 C   0  0  0  0  0  0  0  0  0  0  0  0
    8.3500   -4.5542    0.0000 C   0  0  0  0  0  0  0  0  0  0  0  0
    7.6292   -3.3292    0.0000 C   0  0  0  0  0  0  0  0  0  0  0  0
    0.7125   -3.3500    0.0000 O   0  0  0  0  0  0  0  0  0  0  0  0
    7.6167   -0.8500    0.0000 C   0  0  0  0  0  0  0  0  0  0  0  0
    6.9167   -3.7417    0.0000 C   0  0  0  0  0  0  0  0  0  0  0  0
    8.3417   -3.7292    0.0000 C   0  0  0  0  0  0  0  0  0  0  0  0
    8.3625   -7.0250    0.0000 C   0  0  0  0  0  0  0  0  0  0  0  0
    6.9292   -6.2125    0.0000 C   0  0  0  0  0  0  0  0  0  0  0  0
    8.3292   -1.2542    0.0000 C   0  0  0  0  0  0  0  0  0  0  0  0
    9.0417   -0.8417    0.0000 C   0  0  0  0  0  0  0  0  0  0  0  0
    6.9292   -7.0375    0.0000 C   0  0  0  0  0  0  0  0  0  0  0  0
    7.6500   -7.4417    0.0000 C   0  0  0  0  0  0  0  0  0  0  0  0
    9.7625   -1.2500    0.0000 C   0  0  0  0  0  0  0  0  0  0  0  0
  2  1  1  0
  3  2  1  0
  4  1  1  0
  5  4  2  0
  6 17  1  0
  7 16  1  0
  8 15  1  0
  9 10  1  0
 10  7  1  0
 11 13  1  0
 12  5  1  0
 13  7  2  0
 14  3  2  0
 15 20  1  0
 16 19  1  0
 17 20  1  0
 18  6  1  0
 19 24  1  0
 20 21  1  0
 21 14  1  0
 22  1  1  0
 23  2  2  0
 24 29  2  0
 25 12  2  0
 26 18  2  0
 27 25  1  0
 28 33  2  0
 29 34  1  0
 30 22  1  0
 31 18  1  0
 32  4  1  0
 33 30  1  0
 34 30  2  0
 35 16  2  0
 36 19  2  0
 37 32  1  0
 38 37  1  0
 39 36  1  0
 40 39  2  0
 41 38  1  0
 12  3  1  0
 28 24  1  0
 27 21  2  0
  6  8  2  0
 40 35  1  0
  9 11  2  0
M  END
>  <From>  (1) 
www.bindingDB.org

>  <BindingDB Reactant_set_id>  (1) 
50468368

>  <Ligand InChI>  (1) 
InChI=1S/C30H27N7O4/c1-2-3-8-27-31-24-14-13-20(26-16-25(30(39)40)34-41-26)15-23(24)29(38)37(27)17-18-9-11-19(12-10-18)21-6-4-5-7-22(21)28-32-35-36-33-28/h4-7,9-15,26H,2-3,8,16-17H2,1H3,(H,39,40)(H,32,33,35,36)

>  <Ligand InChI Key>  (1) 
WHSOUMJBGANKTK-UHFFFAOYSA-N

>  <BindingDB MonomerID>  (1) 
50282811

>  <BindingDB Ligand Name>  (1) 
5-{2-Butyl-4-oxo-3-[2'-(1H-tetrazol-5-yl)-biphenyl-4-ylmethyl]-3,4-dihydro-quinazolin-6-yl}-4,5-dihydro-isoxazole-3-carboxylic acid::CHEMBL47872

>  <Target Name>  (1) 
Type-1 angiotensin II receptor

>  <Target Source Organism According to Curator or DataSource>  (1) 
Bos taurus

>  <Ki (nM)>  (1) 


>  <IC50 (nM)>  (1) 
 500

>  <Kd (nM)>  (1) 


>  <EC50 (nM)>  (1) 


>  <kon (M-1-s-1)>  (1) 


>  <koff (s-1)>  (1) 


>  <pH>  (1) 


>  <Temp C>  (1) 


>  <Curation/DataSource>  (1) 
ChEMBL

>  <Article DOI>  (1) 
10.1016/S0960-894X(00)80365-0

>  <BindingDB Entry DOI>  (1) 
10.7270/Q2JS9QB3

>  <PMID>  (1) 


>  <PubChem AID>  (1) 


>  <Patent Number>  (1) 


>  <Authors>  (1) 
Levin, JI; Chan, PS; Coupet, J; Bailey, TK; Vice, G; Thibault, L; F., L; Venkatesan, AM; Cobuzzi, A

>  <Institution>  (1) 
TBA

>  <Link to Ligand in BindingDB>  (1) 
http://www.bindingdb.org/bind/chemsearch/marvin/MolStructure.jsp?monomerid=50282811

>  <Link to Ligand-Target Pair in BindingDB>  (1) 
http://www.bindingdb.org/jsp/dbsearch/PrimarySearch_ki.jsp?energyterm=kJ/mole&tag=r21&monomerid=50282811&enzyme=Type-1+angiotensin+II+receptor&column=ki&startPg=0&Increment=50&submit=Search

>  <Ligand HET ID in PDB>  (1) 


>  <PDB ID(s) for Ligand-Target Complex>  (1) 


>  <PubChem CID of Ligand>  (1) 
9893748

>  <PubChem SID of Ligand>  (1) 
104124485

>  <ChEBI ID of Ligand>  (1) 


>  <ChEMBL ID of Ligand>  (1) 
CHEMBL47872

>  <DrugBank ID of Ligand>  (1) 


>  <IUPHAR_GRAC ID of Ligand>  (1) 


>  <KEGG ID of Ligand>  (1) 


>  <ZINC ID of Ligand>  (1) 
ZINC14278362

>  <Number of Protein Chains in Target (bigger than 1 implies a multichain complex)>  (1) 
1

>  <BindingDB Target Chain Sequence>  (1) 
MILNSSTEDGIKRIQDDCPKAGRHNYIFIMIPTLYSIIFVVGIFGNSLVVIVIYFYMKLKTVASVFLLNLALADLCFLLTLPLWAVYTAMEYRWPFGNYLCKIASASVSFNLYASVFLLTCLSIDRYLAIVHPMKSRLRRTMLVAKVTCIIIWLLAGLASLPTIIHRNVFFIENTNITVCAFHYESQNSTLPVGLGLTKNILGFLFPFLIILTSYTLIWKTLKKAYEIQKNKPRKDDIFKIILAIVLFFFFSWVPHQIFTFMDVLIQLGLIRDCKIEDIVDTAMPITICLAYFNNCLNPLFYGFLGKKFKKYFLQLLKYIPPKAKSHSNLSTKMSTLSYRPSENGNSSTKKPAPCIEVE

>  <PDB ID(s) of Target Chain>  (1) 


>  <UniProt (SwissProt) Recommended Name of Target Chain>  (1) 
Type-1 angiotensin II receptor

>  <UniProt (SwissProt) Entry Name of Target Chain>  (1) 
AGTR1_BOVIN

>  <UniProt (SwissProt) Primary ID of Target Chain>  (1) 
P25104

>  <UniProt (SwissProt) Secondary ID(s) of Target Chain>  (1) 


>  <UniProt (SwissProt) Alternative ID(s) of Target Chain>  (1) 


>  <UniProt (TrEMBL) Submitted Name of Target Chain>  (1) 


>  <UniProt (TrEMBL) Entry Name of Target Chain>  (1) 


>  <UniProt (TrEMBL) Primary ID of Target Chain>  (1) 


>  <UniProt (TrEMBL) Secondary ID(s) of Target Chain>  (1) 


>  <UniProt (TrEMBL) Alternative ID(s) of Target Chain>  (1) 


$$$$
