
     RDKit          2D

 39 43  0  0  0  0  0  0  0  0999 V2000
    6.3788   -4.3204    0.0000 N   0  0  0  0  0  0  0  0  0  0  0  0
    6.6365   -5.1063    0.0000 C   0  0  0  0  0  0  0  0  0  0  0  0
    5.9671   -5.5929    0.0000 C   0  0  0  0  0  0  0  0  0  0  0  0
    5.5554   -4.3204    0.0000 N   0  0  0  0  0  0  0  0  0  0  0  0
    5.3059   -5.1063    0.0000 C   0  0  0  0  0  0  0  0  0  0  0  0
    6.0003   -2.9482    0.0000 C   0  0  0  0  0  0  0  0  0  0  0  0
    6.5908   -3.5221    0.0000 C   0  0  0  0  0  0  0  0  0  0  0  0
    9.5473   -7.2021    0.0000 C   0  0  0  0  0  0  0  0  0  0  0  0
    9.1357   -5.9380    0.0000 N   0  0  0  0  0  0  0  0  0  0  0  0
    8.8820   -6.7156    0.0000 N   0  0  0  0  0  0  0  0  0  0  0  0
    9.9590   -5.9297    0.0000 N   0  0  0  0  0  0  0  0  0  0  0  0
    5.2061   -3.1686    0.0000 C   0  0  0  0  0  0  0  0  0  0  0  0
   10.2085   -6.7156    0.0000 N   0  0  0  0  0  0  0  0  0  0  0  0
    7.4142   -5.3558    0.0000 C   0  0  0  0  0  0  0  0  0  0  0  0
    9.5556   -8.0212    0.0000 C   0  0  0  0  0  0  0  0  0  0  0  0
    8.8446   -8.4329    0.0000 C   0  0  0  0  0  0  0  0  0  0  0  0
    5.9920   -6.7904    0.0000 C   0  0  0  0  0  0  0  0  0  0  0  0
    8.1335   -8.0254    0.0000 C   0  0  0  0  0  0  0  0  0  0  0  0
    7.5721   -6.0170    0.0000 O   0  0  0  0  0  0  0  0  0  0  0  0
    4.4826   -3.3724    0.0000 F   0  0  0  0  0  0  0  0  0  0  0  0
    4.4951   -2.6738    0.0000 F   0  0  0  0  0  0  0  0  0  0  0  0
    4.8568   -3.9587    0.0000 F   0  0  0  0  0  0  0  0  0  0  0  0
    7.4266   -8.4329    0.0000 C   0  0  0  0  0  0  0  0  0  0  0  0
    8.1335   -7.1979    0.0000 C   0  0  0  0  0  0  0  0  0  0  0  0
    6.7031   -7.1979    0.0000 C   0  0  0  0  0  0  0  0  0  0  0  0
    8.0254   -4.8069    0.0000 O   0  0  0  0  0  0  0  0  0  0  0  0
    6.2041   -2.1498    0.0000 C   0  0  0  0  0  0  0  0  0  0  0  0
    7.4224   -6.7862    0.0000 C   0  0  0  0  0  0  0  0  0  0  0  0
    6.7114   -8.0254    0.0000 C   0  0  0  0  0  0  0  0  0  0  0  0
    4.5200   -5.3641    0.0000 C   0  0  0  0  0  0  0  0  0  0  0  0
    7.3892   -3.3058    0.0000 C   0  0  0  0  0  0  0  0  0  0  0  0
   10.2709   -8.4329    0.0000 C   0  0  0  0  0  0  0  0  0  0  0  0
    8.8446   -9.2604    0.0000 C   0  0  0  0  0  0  0  0  0  0  0  0
    3.9088   -4.8069    0.0000 C   0  0  0  0  0  0  0  0  0  0  0  0
    7.0025   -1.9253    0.0000 C   0  0  0  0  0  0  0  0  0  0  0  0
    7.5971   -2.5074    0.0000 C   0  0  0  0  0  0  0  0  0  0  0  0
    9.5556   -9.6721    0.0000 C   0  0  0  0  0  0  0  0  0  0  0  0
   10.2709   -9.2604    0.0000 C   0  0  0  0  0  0  0  0  0  0  0  0
    3.1229   -5.0647    0.0000 C   0  0  0  0  0  0  0  0  0  0  0  0
  2  1  1  0
  3  2  2  0
  4  1  1  0
  5  4  2  0
  6  7  2  0
  7  1  1  0
  8 15  1  0
  9 10  1  0
 10  8  1  0
 11 13  1  0
 12  6  1  0
 13  8  2  0
 14  2  1  0
 15 16  1  0
 16 18  1  0
 17  3  1  0
 18 23  2  0
 19 14  2  0
 20 12  1  0
 21 12  1  0
 22 12  1  0
 23 29  1  0
 24 28  2  0
 25 17  1  0
 26 14  1  0
 27  6  1  0
 28 25  1  0
 29 25  2  0
 30  5  1  0
 31  7  1  0
 32 15  2  0
 33 16  2  0
 34 30  1  0
 35 36  1  0
 36 31  2  0
 37 33  1  0
 38 37  2  0
 39 34  1  0
  5  3  1  0
 27 35  2  0
 24 18  1  0
 38 32  1  0
 11  9  2  0
M  END
>  <From>  (1) 
www.bindingDB.org

>  <BindingDB Reactant_set_id>  (1) 
50061769

>  <Ligand InChI>  (1) 
InChI=1S/C28H23F3N6O2/c1-2-7-23-21(25(27(38)39)37(34-23)24-11-6-5-10-22(24)28(29,30)31)16-17-12-14-18(15-13-17)19-8-3-4-9-20(19)26-32-35-36-33-26/h3-6,8-15H,2,7,16H2,1H3,(H,38,39)(H,32,33,35,36)

>  <Ligand InChI Key>  (1) 
NWCIZNDLMJREGQ-UHFFFAOYSA-N

>  <BindingDB MonomerID>  (1) 
50042551

>  <BindingDB Ligand Name>  (1) 
5-Propyl-4-[2'-(1H-tetrazol-5-yl)-biphenyl-4-ylmethyl]-2-(2-trifluoromethyl-phenyl)-2H-pyrazole-3-carboxylic acid::CHEMBL120457

>  <Target Name>  (1) 
Type-1 angiotensin II receptor

>  <Target Source Organism According to Curator or DataSource>  (1) 
Oryctolagus cuniculus

>  <Ki (nM)>  (1) 


>  <IC50 (nM)>  (1) 
 0.670000

>  <Kd (nM)>  (1) 


>  <EC50 (nM)>  (1) 


>  <kon (M-1-s-1)>  (1) 


>  <koff (s-1)>  (1) 


>  <pH>  (1) 


>  <Temp C>  (1) 


>  <Curation/DataSource>  (1) 
ChEMBL

>  <Article DOI>  (1) 
10.1021/jm00075a014

>  <BindingDB Entry DOI>  (1) 
10.7270/Q25Q4V5H

>  <PMID>  (1) 
8246227

>  <PubChem AID>  (1) 


>  <Patent Number>  (1) 


>  <Authors>  (1) 
Ashton, WT; Hutchins, SM; Greenlee, WJ; Doss, GA; Chang, RS; Lotti, VJ; Faust, KA; Chen, TB; Zingaro, GJ; Kivlighn, SD

>  <Institution>  (1) 
Merck Research Laboratories

>  <Link to Ligand in BindingDB>  (1) 
http://www.bindingdb.org/bind/chemsearch/marvin/MolStructure.jsp?monomerid=50042551

>  <Link to Ligand-Target Pair in BindingDB>  (1) 
http://www.bindingdb.org/jsp/dbsearch/PrimarySearch_ki.jsp?energyterm=kJ/mole&tag=r21&monomerid=50042551&enzyme=Type-1+angiotensin+II+receptor&column=ki&startPg=0&Increment=50&submit=Search

>  <Ligand HET ID in PDB>  (1) 


>  <PDB ID(s) for Ligand-Target Complex>  (1) 


>  <PubChem CID of Ligand>  (1) 
14971717

>  <PubChem SID of Ligand>  (1) 
103974147

>  <ChEBI ID of Ligand>  (1) 


>  <ChEMBL ID of Ligand>  (1) 
CHEMBL120457

>  <DrugBank ID of Ligand>  (1) 


>  <IUPHAR_GRAC ID of Ligand>  (1) 


>  <KEGG ID of Ligand>  (1) 


>  <ZINC ID of Ligand>  (1) 
ZINC27109848

>  <Number of Protein Chains in Target (bigger than 1 implies a multichain complex)>  (1) 
1

>  <BindingDB Target Chain Sequence>  (1) 
MMLNSSTEDGIKRIQDDCPKAGRHNYIFVMIPTLYSIIFVVGIFGNSLAVIVIYFYMKLKTVASVFLLNLALADLCFLLTLPLWAVYTAMEYRWPFGNYLCKIASASVSFNLYASVFLLTCLSIDRYLAIVHPMKSRLRRTMLVAKVTCIIIWLLAGLASLPAIIHRNVFFIENTNITVCAFHYESQNSTLPIGLGLTKNILGFLFPFLIILTSYTLIWKALKKAYEIQKNKPRNDDIFKIIMAIVLFFFFSWVPHQIFTFLDVLIQLGVIHDCRIADIVDTAMPITICIAYFNNCLNPLFYGFLGKKFKKYFLQLLKYIPPKAKSHSNLSTKMSTLSYRPSDNVSSSSKKPVPCFEVE

>  <PDB ID(s) of Target Chain>  (1) 
6DO1,6OS0,6OS1,6OS2

>  <UniProt (SwissProt) Recommended Name of Target Chain>  (1) 
Type-1 angiotensin II receptor

>  <UniProt (SwissProt) Entry Name of Target Chain>  (1) 
AGTR1_RABIT

>  <UniProt (SwissProt) Primary ID of Target Chain>  (1) 
P34976

>  <UniProt (SwissProt) Secondary ID(s) of Target Chain>  (1) 


>  <UniProt (SwissProt) Alternative ID(s) of Target Chain>  (1) 


>  <UniProt (TrEMBL) Submitted Name of Target Chain>  (1) 


>  <UniProt (TrEMBL) Entry Name of Target Chain>  (1) 


>  <UniProt (TrEMBL) Primary ID of Target Chain>  (1) 


>  <UniProt (TrEMBL) Secondary ID(s) of Target Chain>  (1) 


>  <UniProt (TrEMBL) Alternative ID(s) of Target Chain>  (1) 


$$$$
