
     RDKit          2D

 42 47  0  0  0  0  0  0  0  0999 V2000
    0.3323    2.3888    0.0000 C   0  0  0  0  0  0  0  0  0  0  0  0
   -0.4582    2.1310    0.0000 N   0  0  0  0  0  0  0  0  0  0  0  0
    0.3323    3.2138    0.0000 C   0  0  0  0  0  0  0  0  0  0  0  0
    1.0369    1.9764    0.0000 C   0  0  0  0  0  0  0  0  0  0  0  0
   -0.4582    3.4715    0.0000 N   0  0  0  0  0  0  0  0  0  0  0  0
   -0.9452    2.8013    0.0000 C   0  0  0  0  0  0  0  0  0  0  0  0
    1.7530    2.3888    0.0000 N   0  0  0  0  0  0  0  0  0  0  0  0
   -2.9846   -1.3119    0.0000 C   0  0  0  0  0  0  0  0  0  0  0  0
   -4.0043   -0.4354    0.0000 N   0  0  0  0  0  0  0  0  0  0  0  0
   -3.1794   -0.5042    0.0000 N   0  0  0  0  0  0  0  0  0  0  0  0
   -4.3251   -1.2030    0.0000 N   0  0  0  0  0  0  0  0  0  0  0  0
    1.0369    3.6376    0.0000 C   0  0  0  0  0  0  0  0  0  0  0  0
   -3.6950   -1.7415    0.0000 N   0  0  0  0  0  0  0  0  0  0  0  0
    1.7530    3.2138    0.0000 C   0  0  0  0  0  0  0  0  0  0  0  0
   -2.3487   -1.8275    0.0000 C   0  0  0  0  0  0  0  0  0  0  0  0
    2.4634    1.9706    0.0000 C   0  0  0  0  0  0  0  0  0  0  0  0
   -1.5753   -1.5353    0.0000 C   0  0  0  0  0  0  0  0  0  0  0  0
    3.1852    2.3831    0.0000 C   0  0  0  0  0  0  0  0  0  0  0  0
    3.8898    1.1457    0.0000 C   0  0  0  0  0  0  0  0  0  0  0  0
    3.9012    1.9706    0.0000 C   0  0  0  0  0  0  0  0  0  0  0  0
   -1.1800    1.7300    0.0000 C   0  0  0  0  0  0  0  0  0  0  0  0
    1.0369    1.1515    0.0000 O   0  0  0  0  0  0  0  0  0  0  0  0
   -1.4436   -0.7218    0.0000 C   0  0  0  0  0  0  0  0  0  0  0  0
    3.1852    0.7332    0.0000 O   0  0  0  0  0  0  0  0  0  0  0  0
   -2.0909   -0.1948    0.0000 C   0  0  0  0  0  0  0  0  0  0  0  0
   -0.6702   -0.4182    0.0000 C   0  0  0  0  0  0  0  0  0  0  0  0
   -1.1800    0.9051    0.0000 C   0  0  0  0  0  0  0  0  0  0  0  0
    4.6116    0.7332    0.0000 O   0  0  0  0  0  0  0  0  0  0  0  0
   -1.7701    2.8013    0.0000 C   0  0  0  0  0  0  0  0  0  0  0  0
   -1.9534    0.6129    0.0000 C   0  0  0  0  0  0  0  0  0  0  0  0
   -0.5442    0.3895    0.0000 C   0  0  0  0  0  0  0  0  0  0  0  0
   -2.4748   -2.6466    0.0000 C   0  0  0  0  0  0  0  0  0  0  0  0
   -0.9394   -2.0509    0.0000 C   0  0  0  0  0  0  0  0  0  0  0  0
    3.1852    3.2080    0.0000 C   0  0  0  0  0  0  0  0  0  0  0  0
    4.6116    2.3831    0.0000 C   0  0  0  0  0  0  0  0  0  0  0  0
   -2.1826    3.5173    0.0000 C   0  0  0  0  0  0  0  0  0  0  0  0
   -3.0075    3.5173    0.0000 C   0  0  0  0  0  0  0  0  0  0  0  0
   -1.0597   -2.8700    0.0000 C   0  0  0  0  0  0  0  0  0  0  0  0
   -1.8331   -3.1680    0.0000 C   0  0  0  0  0  0  0  0  0  0  0  0
    3.9012    3.6204    0.0000 C   0  0  0  0  0  0  0  0  0  0  0  0
    4.6116    3.2080    0.0000 C   0  0  0  0  0  0  0  0  0  0  0  0
   -3.4200    4.2391    0.0000 C   0  0  0  0  0  0  0  0  0  0  0  0
  2  1  1  0
  3  1  2  0
  4  1  1  0
  5  3  1  0
  6  2  1  0
  7  4  1  0
  8 15  1  0
  9 10  1  0
 10  8  1  0
 11 13  1  0
 12  3  1  0
 13  8  2  0
 14  7  1  0
 15 17  1  0
 16  7  1  0
 17 23  1  0
 18 16  1  0
 19 20  1  0
 20 18  2  0
 21  2  1  0
 22  4  2  0
 23 26  2  0
 24 19  2  0
 25 30  2  0
 26 31  1  0
 27 21  1  0
 28 19  1  0
 29  6  1  0
 30 27  1  0
 31 27  2  0
 32 15  2  0
 33 17  2  0
 34 18  1  0
 35 20  1  0
 36 29  1  0
 37 36  1  0
 38 33  1  0
 39 38  2  0
 40 34  2  0
 41 40  1  0
 42 37  1  0
  6  5  2  0
 14 12  2  0
 23 25  1  0
 41 35  2  0
 39 32  1  0
 11  9  2  0
M  END
>  <From>  (1) 
www.bindingDB.org

>  <BindingDB Reactant_set_id>  (1) 
50066301

>  <Ligand InChI>  (1) 
InChI=1S/C32H29N7O3/c1-2-3-12-28-33-27-17-18-38(20-23-8-4-5-10-25(23)32(41)42)31(40)29(27)39(28)19-21-13-15-22(16-14-21)24-9-6-7-11-26(24)30-34-36-37-35-30/h4-11,13-18H,2-3,12,19-20H2,1H3,(H,41,42)(H,34,35,36,37)

>  <Ligand InChI Key>  (1) 
LPJUWRWABYMZFP-UHFFFAOYSA-N

>  <BindingDB MonomerID>  (1) 
50041683

>  <BindingDB Ligand Name>  (1) 
2-{2-Butyl-4-oxo-3-[2'-(1H-tetrazol-5-yl)-biphenyl-4-ylmethyl]-3,4-dihydro-imidazo[4,5-c]pyridin-5-ylmethyl}-benzoic acid::CHEMBL289448

>  <Target Name>  (1) 
Type-1 angiotensin II receptor B

>  <Target Source Organism According to Curator or DataSource>  (1) 
Rattus

>  <Ki (nM)>  (1) 


>  <IC50 (nM)>  (1) 
 3

>  <Kd (nM)>  (1) 


>  <EC50 (nM)>  (1) 


>  <kon (M-1-s-1)>  (1) 


>  <koff (s-1)>  (1) 


>  <pH>  (1) 


>  <Temp C>  (1) 


>  <Curation/DataSource>  (1) 
ChEMBL

>  <Article DOI>  (1) 
10.1021/jm00037a014

>  <BindingDB Entry DOI>  (1) 
10.7270/Q2RR1X9M

>  <PMID>  (1) 
8201597

>  <PubChem AID>  (1) 


>  <Patent Number>  (1) 


>  <Authors>  (1) 
Mederski, WW; Dorsch, D; Bokel, HH; Beier, N; Lues, I; Schelling, P

>  <Institution>  (1) 
E. Merck

>  <Link to Ligand in BindingDB>  (1) 
http://www.bindingdb.org/bind/chemsearch/marvin/MolStructure.jsp?monomerid=50041683

>  <Link to Ligand-Target Pair in BindingDB>  (1) 
http://www.bindingdb.org/jsp/dbsearch/PrimarySearch_ki.jsp?energyterm=kJ/mole&tag=r21&monomerid=50041683&enzyme=Type-1+angiotensin+II+receptor+B&column=ki&startPg=0&Increment=50&submit=Search

>  <Ligand HET ID in PDB>  (1) 


>  <PDB ID(s) for Ligand-Target Complex>  (1) 


>  <PubChem CID of Ligand>  (1) 
10460419

>  <PubChem SID of Ligand>  (1) 
103973373

>  <ChEBI ID of Ligand>  (1) 


>  <ChEMBL ID of Ligand>  (1) 
CHEMBL289448

>  <DrugBank ID of Ligand>  (1) 


>  <IUPHAR_GRAC ID of Ligand>  (1) 


>  <KEGG ID of Ligand>  (1) 


>  <ZINC ID of Ligand>  (1) 
ZINC29393695

>  <Number of Protein Chains in Target (bigger than 1 implies a multichain complex)>  (1) 
1

>  <BindingDB Target Chain Sequence>  (1) 
MTLNSSTEDGIKRIQDDCPKAGRHNYIFVMIPTLYSIIFVVGIFGNSLVVIVIYFYMKLKTVASVFLLNLALADLCFLLTLPLWAVYTAMEYRWPFGNHLCKIASASVSFNLYASVFLLTCLSIDRYLAIVHPMKSRLRRTMLVAKVTCIIIWLMAGLASLPAVIYRNVYFIENTNITVCAFHYESQNSTLPIGLGLTKNILGFVFPFLIILTSYTLIWKALKKAYKIQKNTPRNDDIFRIIMAIVLFFFFSWVPHQIFTFLDVLIQLGIIRDCEIADIVDTAMPITICIAYFNNCLNPLFYGFLGKKFKKYFLQLLKYIPPTAKSHAGLSTKMSTLSYRPSDNMSSSAKKSASFFEVE

>  <PDB ID(s) of Target Chain>  (1) 


>  <UniProt (SwissProt) Recommended Name of Target Chain>  (1) 
Type-1 angiotensin II receptor B

>  <UniProt (SwissProt) Entry Name of Target Chain>  (1) 
AGTRB_RAT

>  <UniProt (SwissProt) Primary ID of Target Chain>  (1) 
P29089

>  <UniProt (SwissProt) Secondary ID(s) of Target Chain>  (1) 


>  <UniProt (SwissProt) Alternative ID(s) of Target Chain>  (1) 


>  <UniProt (TrEMBL) Submitted Name of Target Chain>  (1) 


>  <UniProt (TrEMBL) Entry Name of Target Chain>  (1) 


>  <UniProt (TrEMBL) Primary ID of Target Chain>  (1) 


>  <UniProt (TrEMBL) Secondary ID(s) of Target Chain>  (1) 


>  <UniProt (TrEMBL) Alternative ID(s) of Target Chain>  (1) 


$$$$
