
     RDKit          2D

 44 50  0  0  0  0  0  0  0  0999 V2000
    8.2568   -3.8875    0.0000 C   0  0  0  0  0  0  0  0  0  0  0  0
    8.2557   -4.7148    0.0000 C   0  0  0  0  0  0  0  0  0  0  0  0
    8.9704   -5.1277    0.0000 C   0  0  0  0  0  0  0  0  0  0  0  0
    9.6869   -4.7143    0.0000 C   0  0  0  0  0  0  0  0  0  0  0  0
    9.6841   -3.8838    0.0000 C   0  0  0  0  0  0  0  0  0  0  0  0
    8.9687   -3.4747    0.0000 C   0  0  0  0  0  0  0  0  0  0  0  0
    7.5372   -2.6527    0.0000 C   0  0  0  0  0  0  0  0  0  0  0  0
    8.2535   -2.2394    0.0000 N   0  0  0  0  0  0  0  0  0  0  0  0
    8.2507   -1.4088    0.0000 C   0  0  0  0  0  0  0  0  0  0  0  0
    7.5353   -0.9997    0.0000 C   0  0  0  0  0  0  0  0  0  0  0  0
    6.8223   -2.2398    0.0000 C   0  0  0  0  0  0  0  0  0  0  0  0
    6.8236   -1.4109    0.0000 C   0  0  0  0  0  0  0  0  0  0  0  0
    6.0357   -1.1535    0.0000 N   0  0  0  0  0  0  0  0  0  0  0  0
    5.5473   -1.8234    0.0000 C   0  0  0  0  0  0  0  0  0  0  0  0
    6.0336   -2.4947    0.0000 N   0  0  0  0  0  0  0  0  0  0  0  0
    4.7223   -1.8222    0.0000 C   0  0  0  0  0  0  0  0  0  0  0  0
    4.3109   -1.1072    0.0000 C   0  0  0  0  0  0  0  0  0  0  0  0
    5.7758   -3.2792    0.0000 C   0  0  0  0  0  0  0  0  0  0  0  0
    5.7739   -4.6141    0.0000 C   0  0  0  0  0  0  0  0  0  0  0  0
    6.2597   -3.9474    0.0000 C   0  0  0  0  0  0  0  0  0  0  0  0
    4.9897   -4.3580    0.0000 C   0  0  0  0  0  0  0  0  0  0  0  0
    4.9927   -3.5346    0.0000 C   0  0  0  0  0  0  0  0  0  0  0  0
    4.2822   -3.1221    0.0000 C   0  0  0  0  0  0  0  0  0  0  0  0
    3.5682   -3.5318    0.0000 C   0  0  0  0  0  0  0  0  0  0  0  0
    3.5691   -4.3584    0.0000 C   0  0  0  0  0  0  0  0  0  0  0  0
    4.2803   -4.7672    0.0000 C   0  0  0  0  0  0  0  0  0  0  0  0
    2.8556   -4.7738    0.0000 C   0  0  0  0  0  0  0  0  0  0  0  0
    2.1402   -4.3607    0.0000 C   0  0  0  0  0  0  0  0  0  0  0  0
    1.4269   -4.7735    0.0000 C   0  0  0  0  0  0  0  0  0  0  0  0
    1.4276   -5.5994    0.0000 C   0  0  0  0  0  0  0  0  0  0  0  0
    2.1477   -6.0107    0.0000 C   0  0  0  0  0  0  0  0  0  0  0  0
    2.8581   -5.5955    0.0000 C   0  0  0  0  0  0  0  0  0  0  0  0
    3.5753   -6.0055    0.0000 C   0  0  0  0  0  0  0  0  0  0  0  0
    3.6651   -6.8255    0.0000 N   0  0  0  0  0  0  0  0  0  0  0  0
    4.4727   -6.9937    0.0000 N   0  0  0  0  0  0  0  0  0  0  0  0
    4.8823   -6.2775    0.0000 N   0  0  0  0  0  0  0  0  0  0  0  0
    4.3275   -5.6668    0.0000 N   0  0  0  0  0  0  0  0  0  0  0  0
    7.5370   -3.4777    0.0000 O   0  0  0  0  0  0  0  0  0  0  0  0
    8.9687   -2.6507    0.0000 C   0  0  0  0  0  0  0  0  0  0  0  0
   10.3969   -3.4686    0.0000 O   0  0  0  0  0  0  0  0  0  0  0  0
   11.1130   -3.8784    0.0000 C   0  0  0  0  0  0  0  0  0  0  0  0
   11.8259   -3.4632    0.0000 F   0  0  0  0  0  0  0  0  0  0  0  0
   11.1161   -4.7034    0.0000 F   0  0  0  0  0  0  0  0  0  0  0  0
   11.8249   -4.2874    0.0000 F   0  0  0  0  0  0  0  0  0  0  0  0
  1  2  2  0
  2  3  1  0
  3  4  2  0
  4  5  1  0
  5  6  2  0
  6  1  1  0
 11  7  1  0
  7  8  1  0
  8  9  1  0
  9 10  2  0
 10 12  1  0
 11 12  2  0
 12 13  1  0
 13 14  2  0
 14 15  1  0
 15 11  1  0
 14 16  1  0
 16 17  1  0
 18 22  1  0
 21 19  1  0
 19 20  1  0
 18 20  1  0
 18 15  1  1
 21 22  2  0
 22 23  1  0
 23 24  2  0
 24 25  1  0
 25 26  2  0
 26 21  1  0
 27 28  2  0
 28 29  1  0
 29 30  2  0
 30 31  1  0
 31 32  2  0
 32 27  1  0
 25 27  1  0
 33 34  1  0
 34 35  1  0
 35 36  2  0
 36 37  1  0
 37 33  2  0
 32 33  1  0
  7 38  2  0
  8 39  1  0
 39  6  1  0
  5 40  1  0
 40 41  1  0
 41 42  1  0
 41 43  1  0
 41 44  1  0
M  END
>  <From>  (1) 
www.bindingDB.org

>  <BindingDB Reactant_set_id>  (1) 
51045888

>  <Ligand InChI>  (1) 
InChI=1S/C32H26F3N7O2/c1-2-28-36-25-15-16-41(18-21-7-3-6-10-27(21)44-32(33,34)35)31(43)29(25)42(28)26-14-12-20-17-19(11-13-23(20)26)22-8-4-5-9-24(22)30-37-39-40-38-30/h3-11,13,15-17,26H,2,12,14,18H2,1H3,(H,37,38,39,40)/t26-/m0/s1

>  <Ligand InChI Key>  (1) 
HSLSRQGULQKHNQ-SANMLTNESA-N

>  <BindingDB MonomerID>  (1) 
50426785

>  <BindingDB Ligand Name>  (1) 
CHEMBL2322447

>  <Target Name>  (1) 
Type-1 angiotensin II receptor

>  <Target Source Organism According to Curator or DataSource>  (1) 
Homo sapiens

>  <Ki (nM)>  (1) 


>  <IC50 (nM)>  (1) 
 29

>  <Kd (nM)>  (1) 


>  <EC50 (nM)>  (1) 


>  <kon (M-1-s-1)>  (1) 


>  <koff (s-1)>  (1) 


>  <pH>  (1) 


>  <Temp C>  (1) 


>  <Curation/DataSource>  (1) 
ChEMBL

>  <Article DOI>  (1) 
10.1016/j.bmcl.2012.11.088

>  <BindingDB Entry DOI>  (1) 
10.7270/Q2542PW7

>  <PMID>  (1) 
23265881

>  <PubChem AID>  (1) 


>  <Patent Number>  (1) 


>  <Authors>  (1) 
Casimiro-Garcia, A; Heemstra, RJ; Bigge, CF; Chen, J; Ciske, FA; Davis, JA; Ellis, T; Esmaeil, N; Flynn, D; Han, S; Jalaie, M; Ohren, JF; Powell, NA

>  <Institution>  (1) 
Pfizer Inc

>  <Link to Ligand in BindingDB>  (1) 
http://www.bindingdb.org/bind/chemsearch/marvin/MolStructure.jsp?monomerid=50426785

>  <Link to Ligand-Target Pair in BindingDB>  (1) 
http://www.bindingdb.org/jsp/dbsearch/PrimarySearch_ki.jsp?energyterm=kJ/mole&tag=r21&monomerid=50426785&enzyme=Type-1+angiotensin+II+receptor&column=ki&startPg=0&Increment=50&submit=Search

>  <Ligand HET ID in PDB>  (1) 


>  <PDB ID(s) for Ligand-Target Complex>  (1) 


>  <PubChem CID of Ligand>  (1) 
71521418

>  <PubChem SID of Ligand>  (1) 
164155660

>  <ChEBI ID of Ligand>  (1) 


>  <ChEMBL ID of Ligand>  (1) 
CHEMBL2322447

>  <DrugBank ID of Ligand>  (1) 


>  <IUPHAR_GRAC ID of Ligand>  (1) 


>  <KEGG ID of Ligand>  (1) 


>  <ZINC ID of Ligand>  (1) 
ZINC95585755

>  <Number of Protein Chains in Target (bigger than 1 implies a multichain complex)>  (1) 
1

>  <BindingDB Target Chain Sequence>  (1) 
MILNSSTEDGIKRIQDDCPKAGRHNYIFVMIPTLYSIIFVVGIFGNSLVVIVIYFYMKLKTVASVFLLNLALADLCFLLTLPLWAVYTAMEYRWPFGNYLCKIASASVSFNLYASVFLLTCLSIDRYLAIVHPMKSRLRRTMLVAKVTCIIIWLLAGLASLPAIIHRNVFFIENTNITVCAFHYESQNSTLPIGLGLTKNILGFLFPFLIILTSYTLIWKALKKAYEIQKNKPRNDDIFKIIMAIVLFFFFSWIPHQIFTFLDVLIQLGIIRDCRIADIVDTAMPITICIAYFNNCLNPLFYGFLGKKFKRYFLQLLKYIPPKAKSHSNLSTKMSTLSYRPSDNVSSSTKKPAPCFEVE

>  <PDB ID(s) of Target Chain>  (1) 
6DO1,6OS0,6OS1,6OS2

>  <UniProt (SwissProt) Recommended Name of Target Chain>  (1) 
Type-1 angiotensin II receptor

>  <UniProt (SwissProt) Entry Name of Target Chain>  (1) 
AGTR1_HUMAN

>  <UniProt (SwissProt) Primary ID of Target Chain>  (1) 
P30556

>  <UniProt (SwissProt) Secondary ID(s) of Target Chain>  (1) 
Q13725 Q8TBK4

>  <UniProt (SwissProt) Alternative ID(s) of Target Chain>  (1) 


>  <UniProt (TrEMBL) Submitted Name of Target Chain>  (1) 


>  <UniProt (TrEMBL) Entry Name of Target Chain>  (1) 


>  <UniProt (TrEMBL) Primary ID of Target Chain>  (1) 


>  <UniProt (TrEMBL) Secondary ID(s) of Target Chain>  (1) 


>  <UniProt (TrEMBL) Alternative ID(s) of Target Chain>  (1) 


$$$$
