 
     RDKit          2D

 20 21  0  0  0  0  0  0  0  0999 V2000
   -2.5883    0.4952    0.0000 C   0  0  0  0  0  0  0  0  0  0  0  0
   -2.6003   -0.3296    0.0000 C   0  0  0  0  0  0  0  0  0  0  0  0
   -1.8919   -0.7526    0.0000 C   0  0  0  0  0  0  0  0  0  0  0  0
   -1.1714   -0.3504    0.0000 C   0  0  0  0  0  0  0  0  0  0  0  0
   -0.3905   -0.6167    0.0000 N   0  0  0  0  0  0  0  0  0  0  0  0
   -0.1470   -1.4051    0.0000 S   0  0  0  0  0  0  0  0  0  0  0  0
   -0.7079   -2.0101    0.0000 C   0  0  0  0  0  0  0  0  0  0  0  0
    0.1040    0.0434    0.0000 C   0  0  0  0  0  0  0  0  0  0  0  0
    0.9290    0.0314    0.0000 C   0  0  0  0  0  0  0  0  0  0  0  0
   -0.3710    0.7178    0.0000 C   0  0  0  0  0  0  0  0  0  0  0  0
   -0.1047    1.4989    0.0000 C   0  0  0  0  0  0  0  0  0  0  0  0
    0.7046    1.6586    0.0000 O   0  0  0  0  0  0  0  0  0  0  0  0
   -0.6477    2.1199    0.0000 O   0  0  0  0  0  0  0  0  0  0  0  0
   -1.1594    0.4744    0.0000 C   0  0  0  0  0  0  0  0  0  0  0  0
   -1.8678    0.8974    0.0000 C   0  0  0  0  0  0  0  0  0  0  0  0
    0.6500   -1.1915    0.0000 O   0  0  0  0  0  0  0  0  0  0  0  0
    0.2655   -2.1199    0.0000 O   0  0  0  0  0  0  0  0  0  0  0  0
    1.3520    0.7401    0.0000 C   0  0  0  0  0  0  0  0  0  0  0  0
    2.1772    0.7279    0.0000 C   0  0  0  0  0  0  0  0  0  0  0  0
    2.6003    1.4367    0.0000 C   0  0  0  0  0  0  0  0  0  0  0  0
  1  2  2  0
  2  3  1  0
  3  4  2  0
  4  5  1  0
  5  6  1  0
  6  7  1  0
  8  5  1  0
  8  9  1  0
 10  8  2  0
 10 11  1  0
 11 12  1  0
 11 13  2  0
 14 10  1  0
  4 14  1  0
 14 15  2  0
 15  1  1  0
  6 16  2  0
  6 17  2  0
  9 18  1  0
 18 19  1  0
 19 20  1  0
M  END
>  <From>  (1) 
www.bindingDB.org

>  <BindingDB Reactant_set_id>  (1) 
51523974

>  <Ligand InChI>  (1) 
InChI=1S/C14H17NO4S/c1-3-4-8-12-13(14(16)17)10-7-5-6-9-11(10)15(12)20(2,18)19/h5-7,9H,3-4,8H2,1-2H3,(H,16,17)

>  <Ligand InChI Key>  (1) 
QPHDBPFTYIFBJZ-UHFFFAOYSA-N

>  <BindingDB MonomerID>  (1) 
50613292

>  <BindingDB Ligand Name>  (1) 
CHEMBL5287876

>  <Target Name>  (1) 
Type-1 angiotensin II receptor

>  <Target Source Organism According to Curator or DataSource>  (1) 
Homo sapiens

>  <Ki (nM)>  (1) 


>  <IC50 (nM)>  (1) 
 29

>  <Kd (nM)>  (1) 


>  <EC50 (nM)>  (1) 


>  <kon (M-1-s-1)>  (1) 


>  <koff (s-1)>  (1) 


>  <pH>  (1) 


>  <Temp C>  (1) 


>  <Curation/DataSource>  (1) 
ChEMBL

>  <Article DOI>  (1) 


>  <BindingDB Entry DOI>  (1) 
10.7270/Q2C82FJ3

>  <PMID>  (1) 
37236375

>  <PubChem AID>  (1) 


>  <Patent Number>  (1) 


>  <Authors>  (1) 
n/a

>  <Institution>  (1) 
n/a

>  <Link to Ligand in BindingDB>  (1) 
http://www.bindingdb.org/bind/chemsearch/marvin/MolStructure.jsp?monomerid=50613292

>  <Link to Ligand-Target Pair in BindingDB>  (1) 
http://www.bindingdb.org/jsp/dbsearch/PrimarySearch_ki.jsp?energyterm=kJ/mole&tag=r21&monomerid=50613292&enzyme=Type-1+angiotensin+II+receptor&column=ki&startPg=0&Increment=50&submit=Search

>  <Ligand HET ID in PDB>  (1) 


>  <PDB ID(s) for Ligand-Target Complex>  (1) 


>  <PubChem CID of Ligand>  (1) 
171347856

>  <PubChem SID of Ligand>  (1) 
494503040

>  <ChEBI ID of Ligand>  (1) 


>  <ChEMBL ID of Ligand>  (1) 


>  <DrugBank ID of Ligand>  (1) 


>  <IUPHAR_GRAC ID of Ligand>  (1) 


>  <KEGG ID of Ligand>  (1) 


>  <ZINC ID of Ligand>  (1) 


>  <Number of Protein Chains in Target (bigger than 1 implies a multichain complex)>  (1) 
1

>  <BindingDB Target Chain Sequence>  (1) 
MILNSSTEDGIKRIQDDCPKAGRHNYIFVMIPTLYSIIFVVGIFGNSLVVIVIYFYMKLKTVASVFLLNLALADLCFLLTLPLWAVYTAMEYRWPFGNYLCKIASASVSFNLYASVFLLTCLSIDRYLAIVHPMKSRLRRTMLVAKVTCIIIWLLAGLASLPAIIHRNVFFIENTNITVCAFHYESQNSTLPIGLGLTKNILGFLFPFLIILTSYTLIWKALKKAYEIQKNKPRNDDIFKIIMAIVLFFFFSWIPHQIFTFLDVLIQLGIIRDCRIADIVDTAMPITICIAYFNNCLNPLFYGFLGKKFKRYFLQLLKYIPPKAKSHSNLSTKMSTLSYRPSDNVSSSTKKPAPCFEVE

>  <PDB ID(s) of Target Chain>  (1) 
6DO1,6OS0,6OS1,6OS2

>  <UniProt (SwissProt) Recommended Name of Target Chain>  (1) 
Type-1 angiotensin II receptor

>  <UniProt (SwissProt) Entry Name of Target Chain>  (1) 
AGTR1_HUMAN

>  <UniProt (SwissProt) Primary ID of Target Chain>  (1) 
P30556

>  <UniProt (SwissProt) Secondary ID(s) of Target Chain>  (1) 
Q13725 Q8TBK4

>  <UniProt (SwissProt) Alternative ID(s) of Target Chain>  (1) 


>  <UniProt (TrEMBL) Submitted Name of Target Chain>  (1) 


>  <UniProt (TrEMBL) Entry Name of Target Chain>  (1) 


>  <UniProt (TrEMBL) Primary ID of Target Chain>  (1) 


>  <UniProt (TrEMBL) Secondary ID(s) of Target Chain>  (1) 


>  <UniProt (TrEMBL) Alternative ID(s) of Target Chain>  (1) 


$$$$
