
     RDKit          2D

 44 50  0  0  1  0  0  0  0  0999 V2000
    0.2542   -3.8375    0.0000 C   0  0  0  0  0  0  0  0  0  0  0  0
   -0.3000   -4.4417    0.0000 C   0  0  0  0  0  0  0  0  0  0  0  0
   -0.1583   -3.1167    0.0000 C   0  0  0  0  0  0  0  0  0  0  0  0
   -0.9708   -3.2875    0.0000 N   0  0  0  0  0  0  0  0  0  0  0  0
    4.5750   -3.7625    0.0000 N   0  0  0  0  0  0  0  0  0  0  0  0
   -1.0583   -4.1125    0.0000 C   0  0  0  0  0  0  0  0  0  0  0  0
    3.8542   -4.1750    0.0000 C   0  0  0  0  0  0  0  0  0  0  0  0
    3.1417   -3.7542    0.0000 C   0  0  0  0  0  0  0  0  0  0  0  0
    0.9167   -4.9917    0.0000 N   0  0  0  0  0  0  0  0  0  0  0  0
    0.1167   -5.1667    0.0000 N   0  0  0  0  0  0  0  0  0  0  0  0
    1.0042   -4.1667    0.0000 C   0  0  0  0  0  0  0  0  0  0  0  0
    4.5750   -2.9292    0.0000 C   0  0  0  0  0  0  0  0  0  0  0  0
    3.8542   -2.5167    0.0000 N   0  0  0  0  0  0  0  0  0  0  0  0
    6.7042   -7.4625    0.0000 C   0  0  0  0  0  0  0  0  0  0  0  0
    7.6000   -6.4667    0.0000 N   0  0  0  0  0  0  0  0  0  0  0  0
    6.7917   -6.6417    0.0000 N   0  0  0  0  0  0  0  0  0  0  0  0
    8.0125   -7.1792    0.0000 N   0  0  0  0  0  0  0  0  0  0  0  0
    3.1417   -2.9292    0.0000 C   0  0  0  0  0  0  0  0  0  0  0  0
    7.4625   -7.7917    0.0000 N   0  0  0  0  0  0  0  0  0  0  0  0
    2.4292   -4.1750    0.0000 C   0  0  0  0  0  0  0  0  0  0  0  0
    1.7167   -3.7625    0.0000 C   0  0  0  0  0  0  0  0  0  0  0  0
    5.9917   -7.8792    0.0000 C   0  0  0  0  0  0  0  0  0  0  0  0
    5.2792   -7.4667    0.0000 C   0  0  0  0  0  0  0  0  0  0  0  0
    5.2875   -4.1750    0.0000 C   0  0  0  0  0  0  0  0  0  0  0  0
    0.1792   -2.3667    0.0000 O   0  0  0  0  0  0  0  0  0  0  0  0
   -1.7708   -4.5167    0.0000 O   0  0  0  0  0  0  0  0  0  0  0  0
    3.8542   -5.0000    0.0000 O   0  0  0  0  0  0  0  0  0  0  0  0
    5.2792   -6.6417    0.0000 C   0  0  0  0  0  0  0  0  0  0  0  0
    2.4292   -2.5167    0.0000 C   0  0  0  0  0  0  0  0  0  0  0  0
    1.7167   -2.9375    0.0000 C   0  0  0  0  0  0  0  0  0  0  0  0
    4.5667   -6.2292    0.0000 C   0  0  0  0  0  0  0  0  0  0  0  0
    6.0000   -6.2292    0.0000 C   0  0  0  0  0  0  0  0  0  0  0  0
   -1.5750   -2.7292    0.0000 C   0  0  0  0  0  0  0  0  0  0  0  0
    5.2875   -5.0000    0.0000 C   0  0  0  0  0  0  0  0  0  0  0  0
    5.2917   -2.5250    0.0000 C   0  0  0  0  0  0  0  0  0  0  0  0
    4.5667   -5.4042    0.0000 C   0  0  0  0  0  0  0  0  0  0  0  0
    6.0000   -5.4042    0.0000 C   0  0  0  0  0  0  0  0  0  0  0  0
    5.9917   -8.7042    0.0000 C   0  0  0  0  0  0  0  0  0  0  0  0
    4.5667   -7.8792    0.0000 C   0  0  0  0  0  0  0  0  0  0  0  0
    6.0042   -2.9375    0.0000 C   0  0  0  0  0  0  0  0  0  0  0  0
    6.7167   -2.5250    0.0000 C   0  0  0  0  0  0  0  0  0  0  0  0
    4.5667   -8.7042    0.0000 C   0  0  0  0  0  0  0  0  0  0  0  0
    5.2792   -9.1167    0.0000 C   0  0  0  0  0  0  0  0  0  0  0  0
    7.4292   -2.9417    0.0000 C   0  0  0  0  0  0  0  0  0  0  0  0
  1  2  1  0
  1  3  1  0
  4  3  1  0
  5  7  1  0
  6  2  1  0
  7  8  1  0
  8 20  2  0
  9 11  1  0
  2 10  2  0
  1 11  1  1
 12 13  2  0
 13 18  1  0
 14 22  1  0
 15 16  1  0
 16 14  1  0
 17 19  1  0
 18 29  2  0
 19 14  2  0
 20 21  1  0
 21 11  1  0
 22 23  1  0
 23 28  1  0
 24  5  1  0
 25  3  2  0
 26  6  2  0
 27  7  2  0
 28 32  2  0
 29 30  1  0
 30 21  2  0
 31 36  2  0
 32 37  1  0
 33  4  1  0
 34 24  1  0
 35 12  1  0
 36 34  1  0
 37 34  2  0
 38 22  2  0
 39 23  2  0
 40 35  1  0
 41 40  1  0
 42 39  1  0
 43 42  2  0
 44 41  1  0
 10  9  1  0
  4  6  1  0
 18  8  1  0
  5 12  1  0
 31 28  1  0
 43 38  1  0
 17 15  2  0
M  END
>  <From>  (1) 
www.bindingDB.org

>  <BindingDB Reactant_set_id>  (1) 
50468481

>  <Ligand InChI>  (1) 
InChI=1S/C32H29N9O3/c1-3-4-9-25-33-24-15-14-20(27-26-28(35-34-27)32(44)40(2)31(26)43)16-23(24)30(42)41(25)17-18-10-12-19(13-11-18)21-7-5-6-8-22(21)29-36-38-39-37-29/h5-8,10-16,26-27,34H,3-4,9,17H2,1-2H3,(H,36,37,38,39)/t26-,27?/m0/s1

>  <Ligand InChI Key>  (1) 
BQMFFSZEKDFHTL-QBHOUYDASA-N

>  <BindingDB MonomerID>  (1) 
50282882

>  <BindingDB Ligand Name>  (1) 
(3aR,6aR)-3-{2-Butyl-4-oxo-3-[2'-(1H-tetrazol-5-yl)-biphenyl-4-ylmethyl]-3,4-dihydro-quinazolin-6-yl}-5-methyl-3a,6a-dihydro-1H-pyrrolo[3,4-c]pyrazole-4,6-dione::CHEMBL416296

>  <Target Name>  (1) 
Type-1 angiotensin II receptor

>  <Target Source Organism According to Curator or DataSource>  (1) 
Bos taurus

>  <Ki (nM)>  (1) 


>  <IC50 (nM)>  (1) 
 110

>  <Kd (nM)>  (1) 


>  <EC50 (nM)>  (1) 


>  <kon (M-1-s-1)>  (1) 


>  <koff (s-1)>  (1) 


>  <pH>  (1) 


>  <Temp C>  (1) 


>  <Curation/DataSource>  (1) 
ChEMBL

>  <Article DOI>  (1) 
10.1016/S0960-894X(01)80377-2

>  <BindingDB Entry DOI>  (1) 
10.7270/Q21V5DXH

>  <PMID>  (1) 


>  <PubChem AID>  (1) 


>  <Patent Number>  (1) 


>  <Authors>  (1) 
Levin, JI; Venkatesan, AM; Chan, PS; Bailey, TK; Vice, G; Coupet, J

>  <Institution>  (1) 
TBA

>  <Link to Ligand in BindingDB>  (1) 
http://www.bindingdb.org/bind/chemsearch/marvin/MolStructure.jsp?monomerid=50282882

>  <Link to Ligand-Target Pair in BindingDB>  (1) 
http://www.bindingdb.org/jsp/dbsearch/PrimarySearch_ki.jsp?energyterm=kJ/mole&tag=r21&monomerid=50282882&enzyme=Type-1+angiotensin+II+receptor&column=ki&startPg=0&Increment=50&submit=Search

>  <Ligand HET ID in PDB>  (1) 


>  <PDB ID(s) for Ligand-Target Complex>  (1) 


>  <PubChem CID of Ligand>  (1) 
91934760

>  <PubChem SID of Ligand>  (1) 
104124556

>  <ChEBI ID of Ligand>  (1) 


>  <ChEMBL ID of Ligand>  (1) 
CHEMBL416296

>  <DrugBank ID of Ligand>  (1) 


>  <IUPHAR_GRAC ID of Ligand>  (1) 


>  <KEGG ID of Ligand>  (1) 


>  <ZINC ID of Ligand>  (1) 
ZINC29488465

>  <Number of Protein Chains in Target (bigger than 1 implies a multichain complex)>  (1) 
1

>  <BindingDB Target Chain Sequence>  (1) 
MILNSSTEDGIKRIQDDCPKAGRHNYIFIMIPTLYSIIFVVGIFGNSLVVIVIYFYMKLKTVASVFLLNLALADLCFLLTLPLWAVYTAMEYRWPFGNYLCKIASASVSFNLYASVFLLTCLSIDRYLAIVHPMKSRLRRTMLVAKVTCIIIWLLAGLASLPTIIHRNVFFIENTNITVCAFHYESQNSTLPVGLGLTKNILGFLFPFLIILTSYTLIWKTLKKAYEIQKNKPRKDDIFKIILAIVLFFFFSWVPHQIFTFMDVLIQLGLIRDCKIEDIVDTAMPITICLAYFNNCLNPLFYGFLGKKFKKYFLQLLKYIPPKAKSHSNLSTKMSTLSYRPSENGNSSTKKPAPCIEVE

>  <PDB ID(s) of Target Chain>  (1) 


>  <UniProt (SwissProt) Recommended Name of Target Chain>  (1) 
Type-1 angiotensin II receptor

>  <UniProt (SwissProt) Entry Name of Target Chain>  (1) 
AGTR1_BOVIN

>  <UniProt (SwissProt) Primary ID of Target Chain>  (1) 
P25104

>  <UniProt (SwissProt) Secondary ID(s) of Target Chain>  (1) 


>  <UniProt (SwissProt) Alternative ID(s) of Target Chain>  (1) 


>  <UniProt (TrEMBL) Submitted Name of Target Chain>  (1) 


>  <UniProt (TrEMBL) Entry Name of Target Chain>  (1) 


>  <UniProt (TrEMBL) Primary ID of Target Chain>  (1) 


>  <UniProt (TrEMBL) Secondary ID(s) of Target Chain>  (1) 


>  <UniProt (TrEMBL) Alternative ID(s) of Target Chain>  (1) 


$$$$
