
     RDKit          2D

 33 37  0  0  0  0  0  0  0  0999 V2000
    1.0009   -7.8125    0.0000 N   0  0  0  0  0  0  0  0  0  0  0  0
    0.5205   -7.1434    0.0000 C   0  0  0  0  0  0  0  0  0  0  0  0
    1.0009   -6.4742    0.0000 N   0  0  0  0  0  0  0  0  0  0  0  0
    1.7902   -7.5552    0.0000 C   0  0  0  0  0  0  0  0  0  0  0  0
    4.2952  -10.9466    0.0000 C   0  0  0  0  0  0  0  0  0  0  0  0
    2.5050   -7.9670    0.0000 C   0  0  0  0  0  0  0  0  0  0  0  0
    4.2380   -9.6141    0.0000 N   0  0  0  0  0  0  0  0  0  0  0  0
    1.7902   -6.7258    0.0000 C   0  0  0  0  0  0  0  0  0  0  0  0
    3.7805  -10.3004    0.0000 N   0  0  0  0  0  0  0  0  0  0  0  0
    5.0330   -9.8371    0.0000 N   0  0  0  0  0  0  0  0  0  0  0  0
    5.0673  -10.6550    0.0000 N   0  0  0  0  0  0  0  0  0  0  0  0
    4.0721  -11.7417    0.0000 C   0  0  0  0  0  0  0  0  0  0  0  0
    2.5280   -8.6533    0.0000 C   0  0  0  0  0  0  0  0  0  0  0  0
    3.2829  -11.9418    0.0000 C   0  0  0  0  0  0  0  0  0  0  0  0
    0.9838   -9.5798    0.0000 C   0  0  0  0  0  0  0  0  0  0  0  0
    2.7109  -11.3470    0.0000 C   0  0  0  0  0  0  0  0  0  0  0  0
   -0.3031   -7.1434    0.0000 C   0  0  0  0  0  0  0  0  0  0  0  0
    1.8874   -9.0421    0.0000 O   0  0  0  0  0  0  0  0  0  0  0  0
    1.9103  -11.5529    0.0000 C   0  0  0  0  0  0  0  0  0  0  0  0
    3.0084  -10.6206    0.0000 C   0  0  0  0  0  0  0  0  0  0  0  0
    1.5671  -10.1631    0.0000 C   0  0  0  0  0  0  0  0  0  0  0  0
    3.2314   -8.9278    0.0000 O   0  0  0  0  0  0  0  0  0  0  0  0
    3.2143   -7.5552    0.0000 C   0  0  0  0  0  0  0  0  0  0  0  0
    2.5050   -6.3140    0.0000 C   0  0  0  0  0  0  0  0  0  0  0  0
    2.3564   -9.9686    0.0000 C   0  0  0  0  0  0  0  0  0  0  0  0
    1.3383  -10.9638    0.0000 C   0  0  0  0  0  0  0  0  0  0  0  0
    4.6555  -12.3250    0.0000 C   0  0  0  0  0  0  0  0  0  0  0  0
    3.0598  -12.7368    0.0000 C   0  0  0  0  0  0  0  0  0  0  0  0
    3.2143   -6.7258    0.0000 C   0  0  0  0  0  0  0  0  0  0  0  0
   -0.7206   -6.4399    0.0000 C   0  0  0  0  0  0  0  0  0  0  0  0
   -0.7149   -7.8640    0.0000 C   0  0  0  0  0  0  0  0  0  0  0  0
    3.6260  -13.3202    0.0000 C   0  0  0  0  0  0  0  0  0  0  0  0
    4.4325  -13.1257    0.0000 C   0  0  0  0  0  0  0  0  0  0  0  0
  2  1  1  0
  3  2  2  0
  4  1  1  0
  5 12  1  0
  6  4  2  0
  7  9  1  0
  8  4  1  0
  9  5  1  0
 10 11  1  0
 11  5  2  0
 12 14  1  0
 13  6  1  0
 14 16  1  0
 15  1  1  0
 16 19  2  0
 17  2  1  0
 18 13  2  0
 19 26  1  0
 20 25  2  0
 21 15  1  0
 22 13  1  0
 23  6  1  0
 24  8  2  0
 25 21  1  0
 26 21  2  0
 27 12  2  0
 28 14  2  0
 29 24  1  0
 30 17  1  0
 31 17  1  0
 32 28  1  0
 33 32  2  0
  8  3  1  0
 16 20  1  0
 23 29  2  0
 33 27  1  0
 10  7  2  0
M  END
>  <From>  (1) 
www.bindingDB.org

>  <BindingDB Reactant_set_id>  (1) 
50764784

>  <Ligand InChI>  (1) 
InChI=1S/C25H22N6O2/c1-15(2)24-26-21-9-5-8-20(25(32)33)22(21)31(24)14-16-10-12-17(13-11-16)18-6-3-4-7-19(18)23-27-29-30-28-23/h3-13,15H,14H2,1-2H3,(H,32,33)(H,27,28,29,30)

>  <Ligand InChI Key>  (1) 
LBJMADAJCCZGEB-UHFFFAOYSA-N

>  <BindingDB MonomerID>  (1) 
50044386

>  <BindingDB Ligand Name>  (1) 
2-Isopropyl-3-[2'-(1H-tetrazol-5-yl)-biphenyl-4-ylmethyl]-3H-benzoimidazole-4-carboxylic acid::CHEMBL433099

>  <Target Name>  (1) 
Type-1 angiotensin II receptor

>  <Target Source Organism According to Curator or DataSource>  (1) 
Bos taurus

>  <Ki (nM)>  (1) 


>  <IC50 (nM)>  (1) 
 82

>  <Kd (nM)>  (1) 


>  <EC50 (nM)>  (1) 


>  <kon (M-1-s-1)>  (1) 


>  <koff (s-1)>  (1) 


>  <pH>  (1) 


>  <Temp C>  (1) 


>  <Curation/DataSource>  (1) 
ChEMBL

>  <Article DOI>  (1) 
10.1021/jm00067a016

>  <BindingDB Entry DOI>  (1) 
10.7270/Q20Z73X8

>  <PMID>  (1) 
8340921

>  <PubChem AID>  (1) 


>  <Patent Number>  (1) 


>  <Authors>  (1) 
Kubo, K; Kohara, Y; Imamiya, E; Sugiura, Y; Inada, Y; Furukawa, Y; Nishikawa, K; Naka, T

>  <Institution>  (1) 
Takeda Chemical Industries, Ltd

>  <Link to Ligand in BindingDB>  (1) 
http://www.bindingdb.org/bind/chemsearch/marvin/MolStructure.jsp?monomerid=50044386

>  <Link to Ligand-Target Pair in BindingDB>  (1) 
http://www.bindingdb.org/jsp/dbsearch/PrimarySearch_ki.jsp?energyterm=kJ/mole&tag=r21&monomerid=50044386&enzyme=Type-1+angiotensin+II+receptor&column=ki&startPg=0&Increment=50&submit=Search

>  <Ligand HET ID in PDB>  (1) 


>  <PDB ID(s) for Ligand-Target Complex>  (1) 


>  <PubChem CID of Ligand>  (1) 
15654743

>  <PubChem SID of Ligand>  (1) 
103975640

>  <ChEBI ID of Ligand>  (1) 


>  <ChEMBL ID of Ligand>  (1) 
CHEMBL433099

>  <DrugBank ID of Ligand>  (1) 


>  <IUPHAR_GRAC ID of Ligand>  (1) 


>  <KEGG ID of Ligand>  (1) 


>  <ZINC ID of Ligand>  (1) 
ZINC13832267

>  <Number of Protein Chains in Target (bigger than 1 implies a multichain complex)>  (1) 
1

>  <BindingDB Target Chain Sequence>  (1) 
MILNSSTEDGIKRIQDDCPKAGRHNYIFIMIPTLYSIIFVVGIFGNSLVVIVIYFYMKLKTVASVFLLNLALADLCFLLTLPLWAVYTAMEYRWPFGNYLCKIASASVSFNLYASVFLLTCLSIDRYLAIVHPMKSRLRRTMLVAKVTCIIIWLLAGLASLPTIIHRNVFFIENTNITVCAFHYESQNSTLPVGLGLTKNILGFLFPFLIILTSYTLIWKTLKKAYEIQKNKPRKDDIFKIILAIVLFFFFSWVPHQIFTFMDVLIQLGLIRDCKIEDIVDTAMPITICLAYFNNCLNPLFYGFLGKKFKKYFLQLLKYIPPKAKSHSNLSTKMSTLSYRPSENGNSSTKKPAPCIEVE

>  <PDB ID(s) of Target Chain>  (1) 


>  <UniProt (SwissProt) Recommended Name of Target Chain>  (1) 
Type-1 angiotensin II receptor

>  <UniProt (SwissProt) Entry Name of Target Chain>  (1) 
AGTR1_BOVIN

>  <UniProt (SwissProt) Primary ID of Target Chain>  (1) 
P25104

>  <UniProt (SwissProt) Secondary ID(s) of Target Chain>  (1) 


>  <UniProt (SwissProt) Alternative ID(s) of Target Chain>  (1) 


>  <UniProt (TrEMBL) Submitted Name of Target Chain>  (1) 


>  <UniProt (TrEMBL) Entry Name of Target Chain>  (1) 


>  <UniProt (TrEMBL) Primary ID of Target Chain>  (1) 


>  <UniProt (TrEMBL) Secondary ID(s) of Target Chain>  (1) 


>  <UniProt (TrEMBL) Alternative ID(s) of Target Chain>  (1) 


$$$$
