
     RDKit          2D

 48 52  0  0  0  0  0  0  0  0999 V2000
    7.2417    0.6000    0.0000 S   0  0  0  0  0  0  0  0  0  0  0  0
    2.9667    0.5958    0.0000 N   0  0  0  0  0  0  0  0  0  0  0  0
    2.2417    1.0083    0.0000 C   0  0  0  0  0  0  0  0  0  0  0  0
    1.5292    0.5958    0.0000 C   0  0  0  0  0  0  0  0  0  0  0  0
    2.9667   -0.2375    0.0000 C   0  0  0  0  0  0  0  0  0  0  0  0
    2.2417   -0.6500    0.0000 N   0  0  0  0  0  0  0  0  0  0  0  0
    7.2375    1.4250    0.0000 N   0  0  0  0  0  0  0  0  0  0  0  0
    1.5292   -0.2417    0.0000 C   0  0  0  0  0  0  0  0  0  0  0  0
    7.2417   -0.2167    0.0000 C   0  0  0  0  0  0  0  0  0  0  0  0
    3.6792    1.0083    0.0000 C   0  0  0  0  0  0  0  0  0  0  0  0
   -1.3208    0.5833    0.0000 C   0  0  0  0  0  0  0  0  0  0  0  0
    7.9542    1.8375    0.0000 C   0  0  0  0  0  0  0  0  0  0  0  0
    4.3917    0.5958    0.0000 C   0  0  0  0  0  0  0  0  0  0  0  0
    6.5292   -0.6375    0.0000 C   0  0  0  0  0  0  0  0  0  0  0  0
    5.8167   -0.2292    0.0000 C   0  0  0  0  0  0  0  0  0  0  0  0
   -0.6083    0.9958    0.0000 N   0  0  0  0  0  0  0  0  0  0  0  0
    5.1042    1.0083    0.0000 C   0  0  0  0  0  0  0  0  0  0  0  0
    8.0667    0.6000    0.0000 O   0  0  0  0  0  0  0  0  0  0  0  0
    6.4167    0.6000    0.0000 O   0  0  0  0  0  0  0  0  0  0  0  0
    5.8167    0.5958    0.0000 C   0  0  0  0  0  0  0  0  0  0  0  0
    0.8167    1.0000    0.0000 C   0  0  0  0  0  0  0  0  0  0  0  0
    2.2417    1.8333    0.0000 O   0  0  0  0  0  0  0  0  0  0  0  0
   -2.0333    0.9958    0.0000 C   0  0  0  0  0  0  0  0  0  0  0  0
    0.1042    0.5833    0.0000 C   0  0  0  0  0  0  0  0  0  0  0  0
   -2.7458    0.5750    0.0000 N   0  0  0  0  0  0  0  0  0  0  0  0
   -1.3208   -0.2417    0.0000 O   0  0  0  0  0  0  0  0  0  0  0  0
    4.3917   -0.2292    0.0000 C   0  0  0  0  0  0  0  0  0  0  0  0
    7.9500    2.6625    0.0000 O   0  0  0  0  0  0  0  0  0  0  0  0
    5.1042   -0.6417    0.0000 C   0  0  0  0  0  0  0  0  0  0  0  0
    0.8167   -0.6500    0.0000 C   0  0  0  0  0  0  0  0  0  0  0  0
    8.6667    1.4250    0.0000 O   0  0  0  0  0  0  0  0  0  0  0  0
    5.1000    1.8333    0.0000 F   0  0  0  0  0  0  0  0  0  0  0  0
    0.1042   -0.2417    0.0000 C   0  0  0  0  0  0  0  0  0  0  0  0
    3.6792   -0.6500    0.0000 C   0  0  0  0  0  0  0  0  0  0  0  0
    7.9542   -0.6292    0.0000 C   0  0  0  0  0  0  0  0  0  0  0  0
    9.3792    1.8458    0.0000 C   0  0  0  0  0  0  0  0  0  0  0  0
    6.5292   -1.4667    0.0000 C   0  0  0  0  0  0  0  0  0  0  0  0
   -3.4583    0.9833    0.0000 C   0  0  0  0  0  0  0  0  0  0  0  0
   -2.0333    1.8208    0.0000 C   0  0  0  0  0  0  0  0  0  0  0  0
   10.0917    1.4333    0.0000 C   0  0  0  0  0  0  0  0  0  0  0  0
   10.8042    1.8458    0.0000 C   0  0  0  0  0  0  0  0  0  0  0  0
    3.6792   -1.4750    0.0000 C   0  0  0  0  0  0  0  0  0  0  0  0
    7.2500   -1.8750    0.0000 C   0  0  0  0  0  0  0  0  0  0  0  0
    7.9625   -1.4625    0.0000 C   0  0  0  0  0  0  0  0  0  0  0  0
   11.5250    1.4333    0.0000 C   0  0  0  0  0  0  0  0  0  0  0  0
   10.8042    2.6708    0.0000 C   0  0  0  0  0  0  0  0  0  0  0  0
   -3.4625    1.8125    0.0000 C   0  0  0  0  0  0  0  0  0  0  0  0
   -2.7500    2.2333    0.0000 C   0  0  0  0  0  0  0  0  0  0  0  0
  2 10  1  0
  3  2  1  0
  4  3  1  0
  5  2  1  0
  6  5  2  0
  7  1  1  0
  8  6  1  0
  9  1  1  0
 10 13  1  0
 11 16  1  0
 12  7  1  0
 13 27  2  0
 14  9  2  0
 15 14  1  0
 16 24  1  0
 17 20  2  0
 18  1  2  0
 19  1  2  0
 20 15  1  0
 21  4  2  0
 22  3  2  0
 23 11  1  0
 24 21  1  0
 25 23  2  0
 26 11  2  0
 27 29  1  0
 28 12  2  0
 29 15  2  0
 30  8  2  0
 31 12  1  0
 32 17  1  0
 33 30  1  0
 34  5  1  0
 35  9  1  0
 36 31  1  0
 37 14  1  0
 38 25  1  0
 39 23  1  0
 40 36  1  0
 41 40  1  0
 42 34  1  0
 43 44  1  0
 44 35  2  0
 45 41  1  0
 46 41  1  0
 47 48  1  0
 48 39  2  0
 43 37  2  0
 13 17  1  0
  8  4  1  0
 33 24  2  0
 47 38  2  0
M  END
>  <From>  (1) 
www.bindingDB.org

>  <BindingDB Reactant_set_id>  (1) 
50469346

>  <Ligand InChI>  (1) 
InChI=1S/C35H34FN5O6S/c1-4-32-39-29-15-14-25(38-33(42)30-10-7-8-17-37-30)20-27(29)34(43)41(32)21-24-13-12-23(19-28(24)36)26-9-5-6-11-31(26)48(45,46)40-35(44)47-18-16-22(2)3/h5-15,17,19-20,22H,4,16,18,21H2,1-3H3,(H,38,42)(H,40,44)

>  <Ligand InChI Key>  (1) 
ARHOSTGQGGKVFS-UHFFFAOYSA-N

>  <BindingDB MonomerID>  (1) 
50283311

>  <BindingDB Ligand Name>  (1) 
2-ethyl-3-(3-fluoro-2'-(3-methyl-butyloxycarbonylaminosulphonyl)-biphenyl-4-ylmethyl)-6-(2-pyridylcarbonylamino)-3H-quinazolin-4-one::CHEMBL74144

>  <Target Name>  (1) 
Type-1 angiotensin II receptor

>  <Target Source Organism According to Curator or DataSource>  (1) 
Homo sapiens

>  <Ki (nM)>  (1) 


>  <IC50 (nM)>  (1) 
 85

>  <Kd (nM)>  (1) 


>  <EC50 (nM)>  (1) 


>  <kon (M-1-s-1)>  (1) 


>  <koff (s-1)>  (1) 


>  <pH>  (1) 


>  <Temp C>  (1) 


>  <Curation/DataSource>  (1) 
ChEMBL

>  <Article DOI>  (1) 
10.1016/0960-894X(94)85036-4

>  <BindingDB Entry DOI>  (1) 
10.7270/Q2X066Z9

>  <PMID>  (1) 


>  <PubChem AID>  (1) 


>  <Patent Number>  (1) 


>  <Authors>  (1) 
Glinka, TW; de Laszlo, SE; Siegl, PK; Chang, RS; Kivlighn, SD; Schorn, TS; Faust, KA; Chen, TB; Zingaro, GJ; Lotti, VJ; Greenlee, WJ

>  <Institution>  (1) 
TBA

>  <Link to Ligand in BindingDB>  (1) 
http://www.bindingdb.org/bind/chemsearch/marvin/MolStructure.jsp?monomerid=50283311

>  <Link to Ligand-Target Pair in BindingDB>  (1) 
http://www.bindingdb.org/jsp/dbsearch/PrimarySearch_ki.jsp?energyterm=kJ/mole&tag=r21&monomerid=50283311&enzyme=Type-1+angiotensin+II+receptor&column=ki&startPg=0&Increment=50&submit=Search

>  <Ligand HET ID in PDB>  (1) 


>  <PDB ID(s) for Ligand-Target Complex>  (1) 


>  <PubChem CID of Ligand>  (1) 
44315059

>  <PubChem SID of Ligand>  (1) 
104124968

>  <ChEBI ID of Ligand>  (1) 


>  <ChEMBL ID of Ligand>  (1) 
CHEMBL74144

>  <DrugBank ID of Ligand>  (1) 


>  <IUPHAR_GRAC ID of Ligand>  (1) 


>  <KEGG ID of Ligand>  (1) 


>  <ZINC ID of Ligand>  (1) 
ZINC26391526

>  <Number of Protein Chains in Target (bigger than 1 implies a multichain complex)>  (1) 
1

>  <BindingDB Target Chain Sequence>  (1) 
MILNSSTEDGIKRIQDDCPKAGRHNYIFVMIPTLYSIIFVVGIFGNSLVVIVIYFYMKLKTVASVFLLNLALADLCFLLTLPLWAVYTAMEYRWPFGNYLCKIASASVSFNLYASVFLLTCLSIDRYLAIVHPMKSRLRRTMLVAKVTCIIIWLLAGLASLPAIIHRNVFFIENTNITVCAFHYESQNSTLPIGLGLTKNILGFLFPFLIILTSYTLIWKALKKAYEIQKNKPRNDDIFKIIMAIVLFFFFSWIPHQIFTFLDVLIQLGIIRDCRIADIVDTAMPITICIAYFNNCLNPLFYGFLGKKFKRYFLQLLKYIPPKAKSHSNLSTKMSTLSYRPSDNVSSSTKKPAPCFEVE

>  <PDB ID(s) of Target Chain>  (1) 
6DO1,6OS0,6OS1,6OS2

>  <UniProt (SwissProt) Recommended Name of Target Chain>  (1) 
Type-1 angiotensin II receptor

>  <UniProt (SwissProt) Entry Name of Target Chain>  (1) 
AGTR1_HUMAN

>  <UniProt (SwissProt) Primary ID of Target Chain>  (1) 
P30556

>  <UniProt (SwissProt) Secondary ID(s) of Target Chain>  (1) 
Q13725 Q8TBK4

>  <UniProt (SwissProt) Alternative ID(s) of Target Chain>  (1) 


>  <UniProt (TrEMBL) Submitted Name of Target Chain>  (1) 


>  <UniProt (TrEMBL) Entry Name of Target Chain>  (1) 


>  <UniProt (TrEMBL) Primary ID of Target Chain>  (1) 


>  <UniProt (TrEMBL) Secondary ID(s) of Target Chain>  (1) 


>  <UniProt (TrEMBL) Alternative ID(s) of Target Chain>  (1) 


$$$$
