
     RDKit          2D

 33 37  0  0  0  0  0  0  0  0999 V2000
    0.9667   -6.2625    0.0000 N   0  0  0  0  0  0  0  0  0  0  0  0
    0.2500   -5.8500    0.0000 C   0  0  0  0  0  0  0  0  0  0  0  0
    3.1042   -9.9667    0.0000 C   0  0  0  0  0  0  0  0  0  0  0  0
    1.7667   -9.9750    0.0000 N   0  0  0  0  0  0  0  0  0  0  0  0
    0.2542   -5.0250    0.0000 C   0  0  0  0  0  0  0  0  0  0  0  0
    2.4375   -9.4917    0.0000 N   0  0  0  0  0  0  0  0  0  0  0  0
    2.0292  -10.7625    0.0000 N   0  0  0  0  0  0  0  0  0  0  0  0
    2.8542  -10.7542    0.0000 N   0  0  0  0  0  0  0  0  0  0  0  0
    1.6792   -5.8500    0.0000 C   0  0  0  0  0  0  0  0  0  0  0  0
   -1.1708   -5.0167    0.0000 N   0  0  0  0  0  0  0  0  0  0  0  0
    3.8167   -9.5625    0.0000 C   0  0  0  0  0  0  0  0  0  0  0  0
   -0.4583   -4.6125    0.0000 C   0  0  0  0  0  0  0  0  0  0  0  0
    3.8250   -8.7375    0.0000 C   0  0  0  0  0  0  0  0  0  0  0  0
   -0.4625   -6.2542    0.0000 C   0  0  0  0  0  0  0  0  0  0  0  0
    0.9667   -4.6125    0.0000 C   0  0  0  0  0  0  0  0  0  0  0  0
    0.9667   -7.0875    0.0000 C   0  0  0  0  0  0  0  0  0  0  0  0
   -1.1708   -5.8500    0.0000 C   0  0  0  0  0  0  0  0  0  0  0  0
    3.1042   -8.3250    0.0000 C   0  0  0  0  0  0  0  0  0  0  0  0
    1.6792   -5.0250    0.0000 C   0  0  0  0  0  0  0  0  0  0  0  0
    2.3917   -6.2625    0.0000 O   0  0  0  0  0  0  0  0  0  0  0  0
    3.1042   -7.4917    0.0000 C   0  0  0  0  0  0  0  0  0  0  0  0
    2.3917   -8.7375    0.0000 C   0  0  0  0  0  0  0  0  0  0  0  0
    1.6792   -7.5000    0.0000 C   0  0  0  0  0  0  0  0  0  0  0  0
    2.3917   -7.0792    0.0000 C   0  0  0  0  0  0  0  0  0  0  0  0
    1.6792   -8.3250    0.0000 C   0  0  0  0  0  0  0  0  0  0  0  0
    4.5375   -9.9667    0.0000 C   0  0  0  0  0  0  0  0  0  0  0  0
   -0.4583   -3.7875    0.0000 C   0  0  0  0  0  0  0  0  0  0  0  0
    4.5292   -8.3167    0.0000 C   0  0  0  0  0  0  0  0  0  0  0  0
   -1.8875   -6.2625    0.0000 C   0  0  0  0  0  0  0  0  0  0  0  0
    0.2625   -3.3750    0.0000 C   0  0  0  0  0  0  0  0  0  0  0  0
   -1.8875   -7.0875    0.0000 C   0  0  0  0  0  0  0  0  0  0  0  0
    5.2500   -9.5542    0.0000 C   0  0  0  0  0  0  0  0  0  0  0  0
    5.2417   -8.7292    0.0000 C   0  0  0  0  0  0  0  0  0  0  0  0
  2  1  1  0
  3 11  1  0
  4  6  1  0
  5  2  2  0
  6  3  1  0
  7  8  1  0
  8  3  2  0
  9  1  1  0
 10 17  1  0
 11 13  1  0
 12  5  1  0
 13 18  1  0
 14  2  1  0
 15 19  1  0
 16  1  1  0
 17 14  2  0
 18 22  2  0
 19  9  1  0
 20  9  2  0
 21 24  2  0
 22 25  1  0
 23 16  1  0
 24 23  1  0
 25 23  2  0
 26 11  2  0
 27 12  1  0
 28 13  2  0
 29 17  1  0
 30 27  1  0
 31 29  1  0
 32 33  2  0
 33 28  1  0
  5 15  1  0
 12 10  2  0
 18 21  1  0
 26 32  1  0
  4  7  2  0
M  END
>  <From>  (1) 
www.bindingDB.org

>  <BindingDB Reactant_set_id>  (1) 
50620758

>  <Ligand InChI>  (1) 
InChI=1S/C26H26N6O/c1-3-19-15-24-22(23(4-2)27-19)13-14-25(33)32(24)16-17-9-11-18(12-10-17)20-7-5-6-8-21(20)26-28-30-31-29-26/h5-12,15H,3-4,13-14,16H2,1-2H3,(H,28,29,30,31)

>  <Ligand InChI Key>  (1) 
BFVNEYDCFJNLGN-UHFFFAOYSA-N

>  <BindingDB MonomerID>  (1) 
50049187

>  <BindingDB Ligand Name>  (1) 
5,7-Diethyl-1-[2'-(1H-tetrazol-5-yl)-biphenyl-4-ylmethyl]-3,4-dihydro-1H-[1,6]naphthyridin-2-one::CHEMBL159096::ZD-7155

>  <Target Name>  (1) 
Type-1 angiotensin II receptor

>  <Target Source Organism According to Curator or DataSource>  (1) 
Cavia porcellus

>  <Ki (nM)>  (1) 


>  <IC50 (nM)>  (1) 
 3.8

>  <Kd (nM)>  (1) 


>  <EC50 (nM)>  (1) 


>  <kon (M-1-s-1)>  (1) 


>  <koff (s-1)>  (1) 


>  <pH>  (1) 


>  <Temp C>  (1) 


>  <Curation/DataSource>  (1) 
ChEMBL

>  <Article DOI>  (1) 
10.1016/j.bmc.2010.10.043

>  <BindingDB Entry DOI>  (1) 
10.7270/Q2H70G3T

>  <PMID>  (1) 
21071232

>  <PubChem AID>  (1) 


>  <Patent Number>  (1) 


>  <Authors>  (1) 
Naik, P; Murumkar, P; Giridhar, R; Yadav, MR

>  <Institution>  (1) 
The M. S. University of Baroda

>  <Link to Ligand in BindingDB>  (1) 
http://www.bindingdb.org/bind/chemsearch/marvin/MolStructure.jsp?monomerid=50049187

>  <Link to Ligand-Target Pair in BindingDB>  (1) 
http://www.bindingdb.org/jsp/dbsearch/PrimarySearch_ki.jsp?energyterm=kJ/mole&tag=r21&monomerid=50049187&enzyme=Type-1+angiotensin+II+receptor&column=ki&startPg=0&Increment=50&submit=Search

>  <Ligand HET ID in PDB>  (1) 
ZD7

>  <PDB ID(s) for Ligand-Target Complex>  (1) 
4YAY

>  <PubChem CID of Ligand>  (1) 
4673492

>  <PubChem SID of Ligand>  (1) 
103979541

>  <ChEBI ID of Ligand>  (1) 


>  <ChEMBL ID of Ligand>  (1) 
CHEMBL159096

>  <DrugBank ID of Ligand>  (1) 


>  <IUPHAR_GRAC ID of Ligand>  (1) 


>  <KEGG ID of Ligand>  (1) 


>  <ZINC ID of Ligand>  (1) 
ZINC03784334

>  <Number of Protein Chains in Target (bigger than 1 implies a multichain complex)>  (1) 
1

>  <BindingDB Target Chain Sequence>  (1) 
MILNSSTEDGIKRIQDDCPKAGRHSYIFVMIPTLYSIIFVVGIFGNSLVVIVIYFYMKLKTVASVFLLNLALADICFLLTLPLWAVYTAMEYRWPFGNYLCKIASASVSFNLYASVFLLTCLSIDRYLAIVHPMKSRLRRTMLVAKVTCVIIWLMAGLASLPAVIHRNVFFIENTNITVCAFHYESQNSTLPIGLGLTKNILGFMFPFLIILTSYTLIWKALKKAYEIQKNKPRNDDIFKIIMAIVLFFFFSWVPHQIFTFLDVLIQLGIIHDCKISDIVDTAMPITICIAYFNNCLNPLFYGFLGKKFKKYFLQLLKYIPPKAKSHSTLSTKMSTLSYRPSDNVSSSAKKPVQCFEVE

>  <PDB ID(s) of Target Chain>  (1) 
4ZUD

>  <UniProt (SwissProt) Recommended Name of Target Chain>  (1) 
Type-1 angiotensin II receptor

>  <UniProt (SwissProt) Entry Name of Target Chain>  (1) 
AGTR1_CAVPO

>  <UniProt (SwissProt) Primary ID of Target Chain>  (1) 
Q9WV26

>  <UniProt (SwissProt) Secondary ID(s) of Target Chain>  (1) 


>  <UniProt (SwissProt) Alternative ID(s) of Target Chain>  (1) 


>  <UniProt (TrEMBL) Submitted Name of Target Chain>  (1) 


>  <UniProt (TrEMBL) Entry Name of Target Chain>  (1) 


>  <UniProt (TrEMBL) Primary ID of Target Chain>  (1) 


>  <UniProt (TrEMBL) Secondary ID(s) of Target Chain>  (1) 


>  <UniProt (TrEMBL) Alternative ID(s) of Target Chain>  (1) 


$$$$
