
     RDKit          2D

 44 48  0  0  0  0  0  0  0  0999 V2000
   14.2152   -7.4041    0.0000 C   0  0  0  0  0  0  0  0  0  0  0  0
   14.2141   -8.2315    0.0000 C   0  0  0  0  0  0  0  0  0  0  0  0
   14.9289   -8.6444    0.0000 C   0  0  0  0  0  0  0  0  0  0  0  0
   14.9271   -6.9914    0.0000 C   0  0  0  0  0  0  0  0  0  0  0  0
   15.6425   -7.4005    0.0000 C   0  0  0  0  0  0  0  0  0  0  0  0
   15.6473   -8.2269    0.0000 C   0  0  0  0  0  0  0  0  0  0  0  0
   16.4348   -8.4778    0.0000 N   0  0  0  0  0  0  0  0  0  0  0  0
   16.9167   -7.8063    0.0000 C   0  0  0  0  0  0  0  0  0  0  0  0
   16.4270   -7.1406    0.0000 N   0  0  0  0  0  0  0  0  0  0  0  0
   17.7417   -7.8014    0.0000 C   0  0  0  0  0  0  0  0  0  0  0  0
   18.1500   -7.0845    0.0000 C   0  0  0  0  0  0  0  0  0  0  0  0
   18.9750   -7.0797    0.0000 C   0  0  0  0  0  0  0  0  0  0  0  0
   16.6943   -9.2609    0.0000 C   0  0  0  0  0  0  0  0  0  0  0  0
   17.5167   -9.2583    0.0000 C   0  0  0  0  0  0  0  0  0  0  0  0
   17.9282   -9.9716    0.0000 C   0  0  0  0  0  0  0  0  0  0  0  0
   18.7498   -9.9694    0.0000 C   0  0  0  0  0  0  0  0  0  0  0  0
   19.1596   -9.2554    0.0000 C   0  0  0  0  0  0  0  0  0  0  0  0
   18.7418   -8.5421    0.0000 C   0  0  0  0  0  0  0  0  0  0  0  0
   17.9216   -8.5478    0.0000 C   0  0  0  0  0  0  0  0  0  0  0  0
   19.9814   -9.2516    0.0000 C   0  0  0  0  0  0  0  0  0  0  0  0
   20.3964   -9.9658    0.0000 C   0  0  0  0  0  0  0  0  0  0  0  0
   21.2207   -9.9625    0.0000 C   0  0  0  0  0  0  0  0  0  0  0  0
   21.6308   -9.2457    0.0000 C   0  0  0  0  0  0  0  0  0  0  0  0
   21.2107   -8.5307    0.0000 C   0  0  0  0  0  0  0  0  0  0  0  0
   20.3879   -8.5375    0.0000 C   0  0  0  0  0  0  0  0  0  0  0  0
   19.9682   -7.8252    0.0000 C   0  0  0  0  0  0  0  0  0  0  0  0
   20.3755   -7.1078    0.0000 O   0  0  0  0  0  0  0  0  0  0  0  0
   19.1432   -7.8312    0.0000 O   0  0  0  0  0  0  0  0  0  0  0  0
   14.9246   -6.1664    0.0000 C   0  0  0  0  0  0  0  0  0  0  0  0
   13.4993   -8.6434    0.0000 C   0  0  0  0  0  0  0  0  0  0  0  0
   12.7851   -8.2304    0.0000 N   0  0  0  0  0  0  0  0  0  0  0  0
   13.4986   -9.4684    0.0000 O   0  0  0  0  0  0  0  0  0  0  0  0
   12.0703   -8.6423    0.0000 C   0  0  0  0  0  0  0  0  0  0  0  0
   11.3562   -8.2292    0.0000 C   0  0  0  0  0  0  0  0  0  0  0  0
   10.6414   -8.6412    0.0000 C   0  0  0  0  0  0  0  0  0  0  0  0
    9.9308   -8.2272    0.0000 C   0  0  0  0  0  0  0  0  0  0  0  0
    9.2164   -8.6385    0.0000 C   0  0  0  0  0  0  0  0  0  0  0  0
    9.2153   -9.4644    0.0000 C   0  0  0  0  0  0  0  0  0  0  0  0
    9.9345   -9.8773    0.0000 C   0  0  0  0  0  0  0  0  0  0  0  0
   10.6459   -9.4636    0.0000 C   0  0  0  0  0  0  0  0  0  0  0  0
    9.9368  -10.7023    0.0000 O   0  0  0  0  0  0  0  0  0  0  0  0
    9.2234  -11.1167    0.0000 C   0  0  0  0  0  0  0  0  0  0  0  0
    8.5011   -9.8772    0.0000 O   0  0  0  0  0  0  0  0  0  0  0  0
    7.7864   -9.4651    0.0000 C   0  0  0  0  0  0  0  0  0  0  0  0
  8 10  1  0
 21 22  2  0
  5  6  1  0
 22 23  1  0
 10 11  1  0
 23 24  2  0
 24 25  1  0
 25 20  2  0
 17 20  1  0
 11 12  1  0
  2  3  1  0
  7 13  1  0
 26 27  1  0
 26 28  2  0
 25 26  1  0
  3  6  2  0
  4 29  1  0
 13 14  1  0
  2 30  1  0
  1  2  2  0
 30 31  1  0
 14 15  2  0
 30 32  2  0
  5  4  2  0
 31 33  1  0
 15 16  1  0
 33 34  1  0
  6  7  1  0
 34 35  1  0
 16 17  2  0
 35 36  2  0
  7  8  1  0
 36 37  1  0
 17 18  1  0
 37 38  2  0
  8  9  2  0
 38 39  1  0
 18 19  2  0
 39 40  2  0
 40 35  1  0
 19 14  1  0
 39 41  1  0
  9  5  1  0
 41 42  1  0
  4  1  1  0
 38 43  1  0
 20 21  1  0
 43 44  1  0
M  END
>  <From>  (1) 
www.bindingDB.org

>  <BindingDB Reactant_set_id>  (1) 
50716818

>  <Ligand InChI>  (1) 
InChI=1S/C36H37N3O5/c1-5-8-33-38-34-23(2)19-27(35(40)37-18-17-24-13-16-31(43-3)32(20-24)44-4)21-30(34)39(33)22-25-11-14-26(15-12-25)28-9-6-7-10-29(28)36(41)42/h6-7,9-16,19-21H,5,8,17-18,22H2,1-4H3,(H,37,40)(H,41,42)

>  <Ligand InChI Key>  (1) 
WMGJGWKGRCCRQX-UHFFFAOYSA-N

>  <BindingDB MonomerID>  (1) 
50363832

>  <BindingDB Ligand Name>  (1) 
CHEMBL1945009

>  <Target Name>  (1) 
Type-1 angiotensin II receptor

>  <Target Source Organism According to Curator or DataSource>  (1) 
Homo sapiens

>  <Ki (nM)>  (1) 


>  <IC50 (nM)>  (1) 
 57.6

>  <Kd (nM)>  (1) 


>  <EC50 (nM)>  (1) 


>  <kon (M-1-s-1)>  (1) 


>  <koff (s-1)>  (1) 


>  <pH>  (1) 


>  <Temp C>  (1) 


>  <Curation/DataSource>  (1) 
ChEMBL

>  <Article DOI>  (1) 
10.1016/j.ejmech.2012.01.009

>  <BindingDB Entry DOI>  (1) 
10.7270/Q29K4BPW

>  <PMID>  (1) 
22309912

>  <PubChem AID>  (1) 


>  <Patent Number>  (1) 


>  <Authors>  (1) 
Wang, JL; Zhang, J; Zhou, ZM; Li, ZH; Xue, WZ; Xu, D; Hao, LP; Han, XF; Fei, F; Liu, T; Liang, AH

>  <Institution>  (1) 
Beijing Institute of Technology

>  <Link to Ligand in BindingDB>  (1) 
http://www.bindingdb.org/bind/chemsearch/marvin/MolStructure.jsp?monomerid=50363832

>  <Link to Ligand-Target Pair in BindingDB>  (1) 
http://www.bindingdb.org/jsp/dbsearch/PrimarySearch_ki.jsp?energyterm=kJ/mole&tag=r21&monomerid=50363832&enzyme=Type-1+angiotensin+II+receptor&column=ki&startPg=0&Increment=50&submit=Search

>  <Ligand HET ID in PDB>  (1) 


>  <PDB ID(s) for Ligand-Target Complex>  (1) 


>  <PubChem CID of Ligand>  (1) 
46910582

>  <PubChem SID of Ligand>  (1) 
136967894

>  <ChEBI ID of Ligand>  (1) 


>  <ChEMBL ID of Ligand>  (1) 
CHEMBL1945009

>  <DrugBank ID of Ligand>  (1) 


>  <IUPHAR_GRAC ID of Ligand>  (1) 


>  <KEGG ID of Ligand>  (1) 


>  <ZINC ID of Ligand>  (1) 
ZINC73198488

>  <Number of Protein Chains in Target (bigger than 1 implies a multichain complex)>  (1) 
1

>  <BindingDB Target Chain Sequence>  (1) 
MILNSSTEDGIKRIQDDCPKAGRHNYIFVMIPTLYSIIFVVGIFGNSLVVIVIYFYMKLKTVASVFLLNLALADLCFLLTLPLWAVYTAMEYRWPFGNYLCKIASASVSFNLYASVFLLTCLSIDRYLAIVHPMKSRLRRTMLVAKVTCIIIWLLAGLASLPAIIHRNVFFIENTNITVCAFHYESQNSTLPIGLGLTKNILGFLFPFLIILTSYTLIWKALKKAYEIQKNKPRNDDIFKIIMAIVLFFFFSWIPHQIFTFLDVLIQLGIIRDCRIADIVDTAMPITICIAYFNNCLNPLFYGFLGKKFKRYFLQLLKYIPPKAKSHSNLSTKMSTLSYRPSDNVSSSTKKPAPCFEVE

>  <PDB ID(s) of Target Chain>  (1) 
6DO1,6OS0,6OS1,6OS2

>  <UniProt (SwissProt) Recommended Name of Target Chain>  (1) 
Type-1 angiotensin II receptor

>  <UniProt (SwissProt) Entry Name of Target Chain>  (1) 
AGTR1_HUMAN

>  <UniProt (SwissProt) Primary ID of Target Chain>  (1) 
P30556

>  <UniProt (SwissProt) Secondary ID(s) of Target Chain>  (1) 
Q13725 Q8TBK4

>  <UniProt (SwissProt) Alternative ID(s) of Target Chain>  (1) 


>  <UniProt (TrEMBL) Submitted Name of Target Chain>  (1) 


>  <UniProt (TrEMBL) Entry Name of Target Chain>  (1) 


>  <UniProt (TrEMBL) Primary ID of Target Chain>  (1) 


>  <UniProt (TrEMBL) Secondary ID(s) of Target Chain>  (1) 


>  <UniProt (TrEMBL) Alternative ID(s) of Target Chain>  (1) 


$$$$
