
     RDKit          2D

 39 43  0  0  0  0  0  0  0  0999 V2000
   20.3951  -14.8592    0.0000 C   0  0  0  0  0  0  0  0  0  0  0  0
   21.1145  -14.4617    0.0000 C   0  0  0  0  0  0  0  0  0  0  0  0
   21.8230  -14.8826    0.0000 C   0  0  0  0  0  0  0  0  0  0  0  0
   21.8057  -15.7075    0.0000 C   0  0  0  0  0  0  0  0  0  0  0  0
   21.0850  -16.1089    0.0000 C   0  0  0  0  0  0  0  0  0  0  0  0
   20.3778  -15.6840    0.0000 C   0  0  0  0  0  0  0  0  0  0  0  0
   19.6879  -14.4343    0.0000 C   0  0  0  0  0  0  0  0  0  0  0  0
   18.9672  -14.8356    0.0000 C   0  0  0  0  0  0  0  0  0  0  0  0
   18.2600  -14.4108    0.0000 C   0  0  0  0  0  0  0  0  0  0  0  0
   18.2721  -13.5885    0.0000 C   0  0  0  0  0  0  0  0  0  0  0  0
   18.9928  -13.1870    0.0000 C   0  0  0  0  0  0  0  0  0  0  0  0
   19.7000  -13.6120    0.0000 C   0  0  0  0  0  0  0  0  0  0  0  0
   21.1278  -13.6354    0.0000 C   0  0  0  0  0  0  0  0  0  0  0  0
   21.8485  -13.2340    0.0000 O   0  0  0  0  0  0  0  0  0  0  0  0
   20.4206  -13.2106    0.0000 O   0  0  0  0  0  0  0  0  0  0  0  0
   17.5662  -13.1597    0.0000 C   0  0  0  0  0  0  0  0  0  0  0  0
   18.0664  -11.6708    0.0000 C   0  0  0  0  0  0  0  0  0  0  0  0
   17.5836  -11.0038    0.0000 N   0  0  0  0  0  0  0  0  0  0  0  0
   16.7979  -11.2599    0.0000 C   0  0  0  0  0  0  0  0  0  0  0  0
   16.7979  -12.0816    0.0000 C   0  0  0  0  0  0  0  0  0  0  0  0
   17.5836  -12.3378    0.0000 N   0  0  0  0  0  0  0  0  0  0  0  0
   16.0848  -10.8449    0.0000 C   0  0  0  0  0  0  0  0  0  0  0  0
   15.3718  -11.2599    0.0000 C   0  0  0  0  0  0  0  0  0  0  0  0
   15.3718  -12.0816    0.0000 C   0  0  0  0  0  0  0  0  0  0  0  0
   16.0848  -12.4966    0.0000 C   0  0  0  0  0  0  0  0  0  0  0  0
   18.8922  -11.6708    0.0000 C   0  0  0  0  0  0  0  0  0  0  0  0
   19.3031  -10.9577    0.0000 C   0  0  0  0  0  0  0  0  0  0  0  0
   20.1289  -10.9577    0.0000 C   0  0  0  0  0  0  0  0  0  0  0  0
   16.0848  -10.0232    0.0000 C   0  0  0  0  0  0  0  0  0  0  0  0
   14.6546  -12.4966    0.0000 N   0  0  0  0  0  0  0  0  0  0  0  0
   13.9416  -12.0816    0.0000 C   0  0  0  0  0  0  0  0  0  0  0  0
   13.2286  -12.4966    0.0000 C   0  0  0  0  0  0  0  0  0  0  0  0
   13.2286  -13.3184    0.0000 C   0  0  0  0  0  0  0  0  0  0  0  0
   12.5156  -13.7292    0.0000 C   0  0  0  0  0  0  0  0  0  0  0  0
   11.7984  -13.3184    0.0000 C   0  0  0  0  0  0  0  0  0  0  0  0
   11.7984  -12.4966    0.0000 C   0  0  0  0  0  0  0  0  0  0  0  0
   12.5156  -12.0816    0.0000 C   0  0  0  0  0  0  0  0  0  0  0  0
   13.9416  -11.2599    0.0000 O   0  0  0  0  0  0  0  0  0  0  0  0
   11.0929  -13.7292    0.0000 C   0  0  0  0  0  0  0  0  0  0  0  0
  1  2  2  0
  2  3  1  0
  3  4  2  0
  4  5  1  0
  5  6  2  0
  1  6  1  0
  7  8  2  0
  8  9  1  0
  9 10  2  0
 10 11  1  0
 11 12  2  0
  7 12  1  0
  1  7  1  0
 13 14  2  0
 13 15  1  0
  2 13  1  0
 17 18  2  0
 18 19  1  0
 19 20  2  0
 20 21  1  0
 17 21  1  0
 22 23  2  0
 23 24  1  0
 24 25  2  0
 20 25  1  0
 19 22  1  0
 26 27  1  0
 27 28  1  0
 17 26  1  0
 22 29  1  0
 31 32  1  0
 32 33  2  0
 33 34  1  0
 34 35  2  0
 35 36  1  0
 36 37  2  0
 32 37  1  0
 31 38  2  0
 35 39  1  0
 30 31  1  0
 24 30  1  0
 16 21  1  0
 10 16  1  0
M  END
>  <From>  (1) 
www.bindingDB.org

>  <BindingDB Reactant_set_id>  (1) 
51199723

>  <Ligand InChI>  (1) 
InChI=1S/C33H31N3O3/c1-4-7-30-35-31-22(3)18-26(34-32(37)25-14-10-21(2)11-15-25)19-29(31)36(30)20-23-12-16-24(17-13-23)27-8-5-6-9-28(27)33(38)39/h5-6,8-19H,4,7,20H2,1-3H3,(H,34,37)(H,38,39)

>  <Ligand InChI Key>  (1) 
YDMPQPKAXQRBIE-UHFFFAOYSA-N

>  <BindingDB MonomerID>  (1) 
50493581

>  <BindingDB Ligand Name>  (1) 
CHEMBL2435826

>  <Target Name>  (1) 
Type-1 angiotensin II receptor

>  <Target Source Organism According to Curator or DataSource>  (1) 
Homo sapiens

>  <Ki (nM)>  (1) 


>  <IC50 (nM)>  (1) 
 4.9

>  <Kd (nM)>  (1) 


>  <EC50 (nM)>  (1) 


>  <kon (M-1-s-1)>  (1) 


>  <koff (s-1)>  (1) 


>  <pH>  (1) 


>  <Temp C>  (1) 


>  <Curation/DataSource>  (1) 
ChEMBL

>  <Article DOI>  (1) 
10.1016/j.ejmech.2013.08.014

>  <BindingDB Entry DOI>  (1) 
10.7270/Q2PK0K32

>  <PMID>  (1) 
24007859

>  <PubChem AID>  (1) 


>  <Patent Number>  (1) 


>  <Authors>  (1) 
Zhang, J; Wang, JL; Yu, WF; Zhou, ZM; Tao, WC; Wang, YC; Xue, WZ; Xu, D; Hao, LP; Han, XF; Fei, F; Liu, T; Liang, AH

>  <Institution>  (1) 
Beijing Institute of Technology

>  <Link to Ligand in BindingDB>  (1) 
http://www.bindingdb.org/bind/chemsearch/marvin/MolStructure.jsp?monomerid=50493581

>  <Link to Ligand-Target Pair in BindingDB>  (1) 
http://www.bindingdb.org/jsp/dbsearch/PrimarySearch_ki.jsp?energyterm=kJ/mole&tag=r21&monomerid=50493581&enzyme=Type-1+angiotensin+II+receptor&column=ki&startPg=0&Increment=50&submit=Search

>  <Ligand HET ID in PDB>  (1) 


>  <PDB ID(s) for Ligand-Target Complex>  (1) 


>  <PubChem CID of Ligand>  (1) 
73350991

>  <PubChem SID of Ligand>  (1) 
433960846

>  <ChEBI ID of Ligand>  (1) 


>  <ChEMBL ID of Ligand>  (1) 


>  <DrugBank ID of Ligand>  (1) 


>  <IUPHAR_GRAC ID of Ligand>  (1) 


>  <KEGG ID of Ligand>  (1) 


>  <ZINC ID of Ligand>  (1) 


>  <Number of Protein Chains in Target (bigger than 1 implies a multichain complex)>  (1) 
1

>  <BindingDB Target Chain Sequence>  (1) 
MILNSSTEDGIKRIQDDCPKAGRHNYIFVMIPTLYSIIFVVGIFGNSLVVIVIYFYMKLKTVASVFLLNLALADLCFLLTLPLWAVYTAMEYRWPFGNYLCKIASASVSFNLYASVFLLTCLSIDRYLAIVHPMKSRLRRTMLVAKVTCIIIWLLAGLASLPAIIHRNVFFIENTNITVCAFHYESQNSTLPIGLGLTKNILGFLFPFLIILTSYTLIWKALKKAYEIQKNKPRNDDIFKIIMAIVLFFFFSWIPHQIFTFLDVLIQLGIIRDCRIADIVDTAMPITICIAYFNNCLNPLFYGFLGKKFKRYFLQLLKYIPPKAKSHSNLSTKMSTLSYRPSDNVSSSTKKPAPCFEVE

>  <PDB ID(s) of Target Chain>  (1) 
6DO1,6OS0,6OS1,6OS2

>  <UniProt (SwissProt) Recommended Name of Target Chain>  (1) 
Type-1 angiotensin II receptor

>  <UniProt (SwissProt) Entry Name of Target Chain>  (1) 
AGTR1_HUMAN

>  <UniProt (SwissProt) Primary ID of Target Chain>  (1) 
P30556

>  <UniProt (SwissProt) Secondary ID(s) of Target Chain>  (1) 
Q13725 Q8TBK4

>  <UniProt (SwissProt) Alternative ID(s) of Target Chain>  (1) 


>  <UniProt (TrEMBL) Submitted Name of Target Chain>  (1) 


>  <UniProt (TrEMBL) Entry Name of Target Chain>  (1) 


>  <UniProt (TrEMBL) Primary ID of Target Chain>  (1) 


>  <UniProt (TrEMBL) Secondary ID(s) of Target Chain>  (1) 


>  <UniProt (TrEMBL) Alternative ID(s) of Target Chain>  (1) 


$$$$
