
     RDKit          2D

 38 42  0  0  0  0  0  0  0  0999 V2000
    3.7478   -3.2060    0.0000 N   0  0  0  0  0  0  0  0  0  0  0  0
    3.4911   -2.4130    0.0000 C   0  0  0  0  0  0  0  0  0  0  0  0
    2.4016   -3.2060    0.0000 N   0  0  0  0  0  0  0  0  0  0  0  0
    2.6583   -2.4187    0.0000 C   0  0  0  0  0  0  0  0  0  0  0  0
    3.0804   -3.6851    0.0000 C   0  0  0  0  0  0  0  0  0  0  0  0
    8.0433   -4.4895    0.0000 C   0  0  0  0  0  0  0  0  0  0  0  0
    7.6326   -3.7821    0.0000 C   0  0  0  0  0  0  0  0  0  0  0  0
    7.6326   -5.2196    0.0000 C   0  0  0  0  0  0  0  0  0  0  0  0
    1.7000   -1.0839    0.0000 N   0  0  0  0  0  0  0  0  0  0  0  0
    4.3297   -3.7821    0.0000 C   0  0  0  0  0  0  0  0  0  0  0  0
    3.0006   -1.6658    0.0000 C   0  0  0  0  0  0  0  0  0  0  0  0
    1.8483   -2.5043    0.0000 C   0  0  0  0  0  0  0  0  0  0  0  0
    6.7998   -3.7821    0.0000 C   0  0  0  0  0  0  0  0  0  0  0  0
    3.9761   -1.7456    0.0000 O   0  0  0  0  0  0  0  0  0  0  0  0
    8.0433   -5.9270    0.0000 O   0  0  0  0  0  0  0  0  0  0  0  0
    2.5214   -0.9983    0.0000 C   0  0  0  0  0  0  0  0  0  0  0  0
    1.3691   -1.8369    0.0000 C   0  0  0  0  0  0  0  0  0  0  0  0
    1.2208   -0.4165    0.0000 C   0  0  0  0  0  0  0  0  0  0  0  0
    6.3833   -3.0633    0.0000 C   0  0  0  0  0  0  0  0  0  0  0  0
    6.3891   -4.5008    0.0000 C   0  0  0  0  0  0  0  0  0  0  0  0
    5.1569   -3.7821    0.0000 C   0  0  0  0  0  0  0  0  0  0  0  0
    6.7998   -5.2196    0.0000 O   0  0  0  0  0  0  0  0  0  0  0  0
    3.0691   -4.5179    0.0000 C   0  0  0  0  0  0  0  0  0  0  0  0
    5.5619   -4.5008    0.0000 C   0  0  0  0  0  0  0  0  0  0  0  0
    5.5619   -3.0633    0.0000 C   0  0  0  0  0  0  0  0  0  0  0  0
    0.4107   -0.4165    0.0000 C   0  0  0  0  0  0  0  0  0  0  0  0
    8.8705   -4.4895    0.0000 C   0  0  0  0  0  0  0  0  0  0  0  0
    8.0320   -3.0633    0.0000 C   0  0  0  0  0  0  0  0  0  0  0  0
    0.0058    0.2852    0.0000 C   0  0  0  0  0  0  0  0  0  0  0  0
    0.0171   -1.1295    0.0000 C   0  0  0  0  0  0  0  0  0  0  0  0
    2.3617   -4.9287    0.0000 C   0  0  0  0  0  0  0  0  0  0  0  0
    2.3617   -5.7559    0.0000 C   0  0  0  0  0  0  0  0  0  0  0  0
    9.2812   -3.7707    0.0000 C   0  0  0  0  0  0  0  0  0  0  0  0
    8.8648   -3.0519    0.0000 C   0  0  0  0  0  0  0  0  0  0  0  0
    1.6486   -6.1666    0.0000 C   0  0  0  0  0  0  0  0  0  0  0  0
   -0.7986   -1.1352    0.0000 C   0  0  0  0  0  0  0  0  0  0  0  0
   -0.8157    0.2738    0.0000 C   0  0  0  0  0  0  0  0  0  0  0  0
   -1.2151   -0.4336    0.0000 C   0  0  0  0  0  0  0  0  0  0  0  0
  2  1  1  0
  3  5  2  0
  4  2  1  0
  5  1  1  0
  6  7  2  0
  7 13  1  0
  8  6  1  0
  9 17  1  0
 10  1  1  0
 11  4  1  0
 12  4  1  0
 13 19  2  0
 14  2  2  0
 15  8  2  0
 16 11  1  0
 17 12  1  0
 18  9  1  0
 19 25  1  0
 20 24  2  0
 21 10  1  0
 22  8  1  0
 23  5  1  0
 24 21  1  0
 25 21  2  0
 26 18  1  0
 27  6  1  0
 28  7  1  0
 29 26  2  0
 30 26  1  0
 31 23  1  0
 32 31  1  0
 33 34  1  0
 34 28  2  0
 35 32  1  0
 36 30  2  0
 37 29  1  0
 38 36  1  0
  3  4  1  0
 20 13  1  0
 16  9  1  0
 27 33  2  0
 37 38  2  0
M  END
>  <From>  (1) 
www.bindingDB.org

>  <BindingDB Reactant_set_id>  (1) 
50067248

>  <Ligand InChI>  (1) 
InChI=1S/C32H35N3O3/c1-2-3-13-29-33-32(18-20-34(21-19-32)22-24-9-5-4-6-10-24)31(38)35(29)23-25-14-16-26(17-15-25)27-11-7-8-12-28(27)30(36)37/h4-12,14-17H,2-3,13,18-23H2,1H3,(H,36,37)

>  <Ligand InChI Key>  (1) 
UURQJIXVTBCUTF-UHFFFAOYSA-N

>  <BindingDB MonomerID>  (1) 
50042229

>  <BindingDB Ligand Name>  (1) 
4'-(8-Benzyl-2-butyl-4-oxo-1,3,8-triaza-spiro[4.5]dec-1-en-3-ylmethyl)-biphenyl-2-carboxylic acid::CHEMBL112343

>  <Target Name>  (1) 
Type-1 angiotensin II receptor B

>  <Target Source Organism According to Curator or DataSource>  (1) 
Rattus

>  <Ki (nM)>  (1) 


>  <IC50 (nM)>  (1) 
 110

>  <Kd (nM)>  (1) 


>  <EC50 (nM)>  (1) 


>  <kon (M-1-s-1)>  (1) 


>  <koff (s-1)>  (1) 


>  <pH>  (1) 


>  <Temp C>  (1) 


>  <Curation/DataSource>  (1) 
ChEMBL

>  <Article DOI>  (1) 
10.1021/jm00074a018

>  <BindingDB Entry DOI>  (1) 
10.7270/Q22Z14M0

>  <PMID>  (1) 
8230127

>  <PubChem AID>  (1) 


>  <Patent Number>  (1) 


>  <Authors>  (1) 
Bernhart, CA; Perreaut, PM; Ferrari, BP; Muneaux, YA; Assens, JL; Clement, J; Haudricourt, F; Muneaux, CF; Taillades, JE; Vignal, MA

>  <Institution>  (1) 
Sanofi Recherche

>  <Link to Ligand in BindingDB>  (1) 
http://www.bindingdb.org/bind/chemsearch/marvin/MolStructure.jsp?monomerid=50042229

>  <Link to Ligand-Target Pair in BindingDB>  (1) 
http://www.bindingdb.org/jsp/dbsearch/PrimarySearch_ki.jsp?energyterm=kJ/mole&tag=r21&monomerid=50042229&enzyme=Type-1+angiotensin+II+receptor+B&column=ki&startPg=0&Increment=50&submit=Search

>  <Ligand HET ID in PDB>  (1) 


>  <PDB ID(s) for Ligand-Target Complex>  (1) 


>  <PubChem CID of Ligand>  (1) 
44342013

>  <PubChem SID of Ligand>  (1) 
103973837

>  <ChEBI ID of Ligand>  (1) 


>  <ChEMBL ID of Ligand>  (1) 
CHEMBL112343

>  <DrugBank ID of Ligand>  (1) 


>  <IUPHAR_GRAC ID of Ligand>  (1) 


>  <KEGG ID of Ligand>  (1) 


>  <ZINC ID of Ligand>  (1) 
ZINC13833582

>  <Number of Protein Chains in Target (bigger than 1 implies a multichain complex)>  (1) 
1

>  <BindingDB Target Chain Sequence>  (1) 
MTLNSSTEDGIKRIQDDCPKAGRHNYIFVMIPTLYSIIFVVGIFGNSLVVIVIYFYMKLKTVASVFLLNLALADLCFLLTLPLWAVYTAMEYRWPFGNHLCKIASASVSFNLYASVFLLTCLSIDRYLAIVHPMKSRLRRTMLVAKVTCIIIWLMAGLASLPAVIYRNVYFIENTNITVCAFHYESQNSTLPIGLGLTKNILGFVFPFLIILTSYTLIWKALKKAYKIQKNTPRNDDIFRIIMAIVLFFFFSWVPHQIFTFLDVLIQLGIIRDCEIADIVDTAMPITICIAYFNNCLNPLFYGFLGKKFKKYFLQLLKYIPPTAKSHAGLSTKMSTLSYRPSDNMSSSAKKSASFFEVE

>  <PDB ID(s) of Target Chain>  (1) 


>  <UniProt (SwissProt) Recommended Name of Target Chain>  (1) 
Type-1 angiotensin II receptor B

>  <UniProt (SwissProt) Entry Name of Target Chain>  (1) 
AGTRB_RAT

>  <UniProt (SwissProt) Primary ID of Target Chain>  (1) 
P29089

>  <UniProt (SwissProt) Secondary ID(s) of Target Chain>  (1) 


>  <UniProt (SwissProt) Alternative ID(s) of Target Chain>  (1) 


>  <UniProt (TrEMBL) Submitted Name of Target Chain>  (1) 


>  <UniProt (TrEMBL) Entry Name of Target Chain>  (1) 


>  <UniProt (TrEMBL) Primary ID of Target Chain>  (1) 


>  <UniProt (TrEMBL) Secondary ID(s) of Target Chain>  (1) 


>  <UniProt (TrEMBL) Alternative ID(s) of Target Chain>  (1) 


$$$$
