
     RDKit          2D

 32 34  0  0  1  0  0  0  0  0999 V2000
    4.0667   -0.9292    0.0000 N   0  0  0  0  0  0  0  0  0  0  0  0
    6.2125   -4.6417    0.0000 C   0  0  0  0  0  0  0  0  0  0  0  0
    4.9042   -4.9167    0.0000 N   0  0  0  0  0  0  0  0  0  0  0  0
    5.4542   -4.3042    0.0000 N   0  0  0  0  0  0  0  0  0  0  0  0
    5.3167   -5.6375    0.0000 N   0  0  0  0  0  0  0  0  0  0  0  0
    6.1250   -5.4667    0.0000 N   0  0  0  0  0  0  0  0  0  0  0  0
    6.9250   -4.2292    0.0000 C   0  0  0  0  0  0  0  0  0  0  0  0
    4.7792   -0.5125    0.0000 C   0  0  0  0  0  0  0  0  0  0  0  0
    3.3542   -0.5167    0.0000 C   0  0  0  0  0  0  0  0  0  0  0  0
    6.9250   -3.4000    0.0000 C   0  0  0  0  0  0  0  0  0  0  0  0
    4.7792    0.3125    0.0000 C   0  0  0  0  0  0  0  0  0  0  0  0
    4.0667   -1.7542    0.0000 C   0  0  0  0  0  0  0  0  0  0  0  0
    6.2125   -2.9917    0.0000 C   0  0  0  0  0  0  0  0  0  0  0  0
    3.3542    0.3083    0.0000 O   0  0  0  0  0  0  0  0  0  0  0  0
    4.0667    0.7250    0.0000 O   0  0  0  0  0  0  0  0  0  0  0  0
    6.2125   -2.1625    0.0000 C   0  0  0  0  0  0  0  0  0  0  0  0
    5.5042   -3.4000    0.0000 C   0  0  0  0  0  0  0  0  0  0  0  0
    5.4917    0.7333    0.0000 N   0  0  0  0  0  0  0  0  0  0  0  0
    4.7792   -2.1625    0.0000 C   0  0  0  0  0  0  0  0  0  0  0  0
    5.4917   -0.9250    0.0000 C   0  0  0  0  0  0  0  0  0  0  0  0
    4.7875   -2.9917    0.0000 C   0  0  0  0  0  0  0  0  0  0  0  0
    5.5000   -1.7500    0.0000 C   0  0  0  0  0  0  0  0  0  0  0  0
    7.6375   -4.6417    0.0000 C   0  0  0  0  0  0  0  0  0  0  0  0
    2.6375   -0.9167    0.0000 C   0  0  0  0  0  0  0  0  0  0  0  0
    7.6375   -2.9875    0.0000 C   0  0  0  0  0  0  0  0  0  0  0  0
    6.2042   -0.5042    0.0000 C   0  0  0  0  0  0  0  0  0  0  0  0
    6.2042   -1.3375    0.0000 C   0  0  0  0  0  0  0  0  0  0  0  0
    1.9167   -0.5042    0.0000 C   0  0  0  0  0  0  0  0  0  0  0  0
    1.2042   -0.9167    0.0000 C   0  0  0  0  0  0  0  0  0  0  0  0
    8.3542   -3.4000    0.0000 C   0  0  0  0  0  0  0  0  0  0  0  0
    8.3542   -4.2292    0.0000 C   0  0  0  0  0  0  0  0  0  0  0  0
    0.4917   -0.5000    0.0000 C   0  0  0  0  0  0  0  0  0  0  0  0
  2  7  1  0
  3  4  1  0
  4  2  1  0
  5  6  1  0
  6  2  2  0
  7 10  1  0
  8  1  1  0
  9  1  1  0
 10 13  1  0
  8 11  1  0
 12  1  1  0
 13 16  2  0
 14  9  2  0
 15 11  2  0
 16 22  1  0
 17 21  2  0
 18 11  1  0
 19 12  1  0
  8 20  1  6
 21 19  1  0
 22 19  2  0
 23  7  2  0
 24  9  1  0
 25 10  2  0
 26 20  1  0
 27 20  1  0
 28 24  1  0
 29 28  1  0
 30 25  1  0
 31 30  2  0
 32 29  1  0
 17 13  1  0
 23 31  1  0
  3  5  2  0
M  END
>  <From>  (1) 
www.bindingDB.org

>  <BindingDB Reactant_set_id>  (1) 
50467540

>  <Ligand InChI>  (1) 
InChI=1S/C24H30N6O2/c1-4-5-10-21(31)30(22(16(2)3)23(25)32)15-17-11-13-18(14-12-17)19-8-6-7-9-20(19)24-26-28-29-27-24/h6-9,11-14,16,22H,4-5,10,15H2,1-3H3,(H2,25,32)(H,26,27,28,29)/t22-/m0/s1

>  <Ligand InChI Key>  (1) 
NTIGBSABUIVQAZ-QFIPXVFZSA-N

>  <BindingDB MonomerID>  (1) 
50282368

>  <BindingDB Ligand Name>  (1) 
CHEMBL116298::Pentanoic acid ((S)-1-carbamoyl-2-methyl-propyl)-[2'-(1H-tetrazol-5-yl)-biphenyl-4-ylmethyl]-amide

>  <Target Name>  (1) 
Type-1 angiotensin II receptor

>  <Target Source Organism According to Curator or DataSource>  (1) 
Homo sapiens

>  <Ki (nM)>  (1) 


>  <IC50 (nM)>  (1) 
 6

>  <Kd (nM)>  (1) 


>  <EC50 (nM)>  (1) 


>  <kon (M-1-s-1)>  (1) 


>  <koff (s-1)>  (1) 


>  <pH>  (1) 


>  <Temp C>  (1) 


>  <Curation/DataSource>  (1) 
ChEMBL

>  <Article DOI>  (1) 
10.1016/S0960-894X(01)81117-3

>  <BindingDB Entry DOI>  (1) 
10.7270/Q25Q4W14

>  <PMID>  (1) 


>  <PubChem AID>  (1) 


>  <Patent Number>  (1) 


>  <Authors>  (1) 
B&#xfc;hlmayer, P; Furet, P; Criscione, L; Gasparo, Md; Whitebread, S; Schmidlin, T; Lattmann, R; Wood, J

>  <Institution>  (1) 
TBA

>  <Link to Ligand in BindingDB>  (1) 
http://www.bindingdb.org/bind/chemsearch/marvin/MolStructure.jsp?monomerid=50282368

>  <Link to Ligand-Target Pair in BindingDB>  (1) 
http://www.bindingdb.org/jsp/dbsearch/PrimarySearch_ki.jsp?energyterm=kJ/mole&tag=r21&monomerid=50282368&enzyme=Type-1+angiotensin+II+receptor&column=ki&startPg=0&Increment=50&submit=Search

>  <Ligand HET ID in PDB>  (1) 


>  <PDB ID(s) for Ligand-Target Complex>  (1) 


>  <PubChem CID of Ligand>  (1) 
44341922

>  <PubChem SID of Ligand>  (1) 
104124042

>  <ChEBI ID of Ligand>  (1) 


>  <ChEMBL ID of Ligand>  (1) 
CHEMBL116298

>  <DrugBank ID of Ligand>  (1) 


>  <IUPHAR_GRAC ID of Ligand>  (1) 


>  <KEGG ID of Ligand>  (1) 


>  <ZINC ID of Ligand>  (1) 
ZINC27089004

>  <Number of Protein Chains in Target (bigger than 1 implies a multichain complex)>  (1) 
1

>  <BindingDB Target Chain Sequence>  (1) 
MILNSSTEDGIKRIQDDCPKAGRHNYIFVMIPTLYSIIFVVGIFGNSLVVIVIYFYMKLKTVASVFLLNLALADLCFLLTLPLWAVYTAMEYRWPFGNYLCKIASASVSFNLYASVFLLTCLSIDRYLAIVHPMKSRLRRTMLVAKVTCIIIWLLAGLASLPAIIHRNVFFIENTNITVCAFHYESQNSTLPIGLGLTKNILGFLFPFLIILTSYTLIWKALKKAYEIQKNKPRNDDIFKIIMAIVLFFFFSWIPHQIFTFLDVLIQLGIIRDCRIADIVDTAMPITICIAYFNNCLNPLFYGFLGKKFKRYFLQLLKYIPPKAKSHSNLSTKMSTLSYRPSDNVSSSTKKPAPCFEVE

>  <PDB ID(s) of Target Chain>  (1) 
6DO1,6OS0,6OS1,6OS2

>  <UniProt (SwissProt) Recommended Name of Target Chain>  (1) 
Type-1 angiotensin II receptor

>  <UniProt (SwissProt) Entry Name of Target Chain>  (1) 
AGTR1_HUMAN

>  <UniProt (SwissProt) Primary ID of Target Chain>  (1) 
P30556

>  <UniProt (SwissProt) Secondary ID(s) of Target Chain>  (1) 
Q13725 Q8TBK4

>  <UniProt (SwissProt) Alternative ID(s) of Target Chain>  (1) 


>  <UniProt (TrEMBL) Submitted Name of Target Chain>  (1) 


>  <UniProt (TrEMBL) Entry Name of Target Chain>  (1) 


>  <UniProt (TrEMBL) Primary ID of Target Chain>  (1) 


>  <UniProt (TrEMBL) Secondary ID(s) of Target Chain>  (1) 


>  <UniProt (TrEMBL) Alternative ID(s) of Target Chain>  (1) 


$$$$
