
     RDKit          2D

 38 41  0  0  0  0  0  0  0  0999 V2000
    2.4767   -1.9899    0.0000 N   0  0  0  0  0  0  0  0  0  0  0  0
    2.5584   -1.1682    0.0000 C   0  0  0  0  0  0  0  0  0  0  0  0
    3.7773   -1.7056    0.0000 N   0  0  0  0  0  0  0  0  0  0  0  0
    3.2283   -2.3170    0.0000 C   0  0  0  0  0  0  0  0  0  0  0  0
    3.3645   -0.9969    0.0000 C   0  0  0  0  0  0  0  0  0  0  0  0
    2.0016   -0.5608    0.0000 N   0  0  0  0  0  0  0  0  0  0  0  0
    1.7680   -4.8832    0.0000 C   0  0  0  0  0  0  0  0  0  0  0  0
    1.7757   -5.7049    0.0000 O   0  0  0  0  0  0  0  0  0  0  0  0
    2.4883   -6.1138    0.0000 C   0  0  0  0  0  0  0  0  0  0  0  0
    3.6138   -0.2025    0.0000 C   0  0  0  0  0  0  0  0  0  0  0  0
    1.7640   -2.4105    0.0000 C   0  0  0  0  0  0  0  0  0  0  0  0
    2.4883   -4.4743    0.0000 C   0  0  0  0  0  0  0  0  0  0  0  0
    1.0553   -4.4783    0.0000 C   0  0  0  0  0  0  0  0  0  0  0  0
    3.2049   -5.7049    0.0000 C   0  0  0  0  0  0  0  0  0  0  0  0
    1.7680   -3.2360    0.0000 C   0  0  0  0  0  0  0  0  0  0  0  0
    1.0514   -3.6566    0.0000 C   0  0  0  0  0  0  0  0  0  0  0  0
    2.4806   -3.6488    0.0000 C   0  0  0  0  0  0  0  0  0  0  0  0
    2.2547    0.2220    0.0000 C   0  0  0  0  0  0  0  0  0  0  0  0
    2.4923   -6.9432    0.0000 C   0  0  0  0  0  0  0  0  0  0  0  0
    3.0647    0.4050    0.0000 C   0  0  0  0  0  0  0  0  0  0  0  0
    3.2010   -4.8755    0.0000 O   0  0  0  0  0  0  0  0  0  0  0  0
    3.2049   -7.3521    0.0000 C   0  0  0  0  0  0  0  0  0  0  0  0
    1.7796   -7.3599    0.0000 C   0  0  0  0  0  0  0  0  0  0  0  0
    3.9175   -6.1138    0.0000 O   0  0  0  0  0  0  0  0  0  0  0  0
    3.4035   -3.1309    0.0000 C   0  0  0  0  0  0  0  0  0  0  0  0
    1.7796   -8.1816    0.0000 C   0  0  0  0  0  0  0  0  0  0  0  0
    3.2049   -8.1816    0.0000 C   0  0  0  0  0  0  0  0  0  0  0  0
    2.4923   -8.5982    0.0000 C   0  0  0  0  0  0  0  0  0  0  0  0
    3.3100   -4.4743    0.0000 C   0  0  0  0  0  0  0  0  0  0  0  0
    0.3427   -4.8988    0.0000 C   0  0  0  0  0  0  0  0  0  0  0  0
    4.4198   -0.0273    0.0000 C   0  0  0  0  0  0  0  0  0  0  0  0
    1.6979    0.8294    0.0000 C   0  0  0  0  0  0  0  0  0  0  0  0
    2.4923   -9.4199    0.0000 C   0  0  0  0  0  0  0  0  0  0  0  0
   -0.3738   -4.4899    0.0000 C   0  0  0  0  0  0  0  0  0  0  0  0
    3.7267   -5.1870    0.0000 C   0  0  0  0  0  0  0  0  0  0  0  0
    4.1940   -3.3801    0.0000 C   0  0  0  0  0  0  0  0  0  0  0  0
    4.5484   -5.1870    0.0000 C   0  0  0  0  0  0  0  0  0  0  0  0
   -1.0825   -4.9066    0.0000 C   0  0  0  0  0  0  0  0  0  0  0  0
  2  1  1  0
  3  4  2  0
  4  1  1  0
  5  2  2  0
  6  2  1  0
  7 12  2  0
  8  7  1  0
  9  8  1  0
 10  5  1  0
 11  1  1  0
 12 17  1  0
 13 16  2  0
 14  9  1  0
 15 11  1  0
 16 15  1  0
 17 15  2  0
 18  6  2  0
 19  9  1  0
 20 18  1  0
 21 14  2  0
 22 19  2  0
 23 19  1  0
 24 14  1  0
 25  4  1  0
 26 23  2  0
 27 22  1  0
 28 26  1  0
 29 12  1  0
 30 13  1  0
 31 10  1  0
 32 18  1  0
 33 28  1  0
 34 30  1  0
 35 29  1  0
 36 25  1  0
 37 35  1  0
 38 34  1  0
  3  5  1  0
 13  7  1  0
 10 20  2  0
 28 27  2  0
M  END
>  <From>  (1) 
www.bindingDB.org

>  <BindingDB Reactant_set_id>  (1) 
50061820

>  <Ligand InChI>  (1) 
InChI=1S/C32H39N3O3/c1-7-10-25-17-23(19-35-27(9-3)34-28-21(5)16-22(6)33-31(28)35)18-26(11-8-2)29(25)38-30(32(36)37)24-14-12-20(4)13-15-24/h12-18,30H,7-11,19H2,1-6H3,(H,36,37)

>  <Ligand InChI Key>  (1) 
JNVJJRSXVJPSIS-UHFFFAOYSA-N

>  <BindingDB MonomerID>  (1) 
50042745

>  <BindingDB Ligand Name>  (1) 
CHEMBL124541::[4-(2-Ethyl-5,7-dimethyl-imidazo[4,5-b]pyridin-3-ylmethyl)-2,6-dipropyl-phenoxy]-p-tolyl-acetic acid

>  <Target Name>  (1) 
Type-1 angiotensin II receptor

>  <Target Source Organism According to Curator or DataSource>  (1) 
Oryctolagus cuniculus

>  <Ki (nM)>  (1) 


>  <IC50 (nM)>  (1) 
 4

>  <Kd (nM)>  (1) 


>  <EC50 (nM)>  (1) 


>  <kon (M-1-s-1)>  (1) 


>  <koff (s-1)>  (1) 


>  <pH>  (1) 


>  <Temp C>  (1) 


>  <Curation/DataSource>  (1) 
ChEMBL

>  <Article DOI>  (1) 
10.1021/jm00075a033

>  <BindingDB Entry DOI>  (1) 
10.7270/Q2J1027W

>  <PMID>  (1) 
8246245

>  <PubChem AID>  (1) 


>  <Patent Number>  (1) 


>  <Authors>  (1) 
Dhanoa, DS; Bagley, SW; Chang, RS; Lotti, VJ; Chen, TB; Kivlighn, SD; Zingaro, GJ; Siegl, PK; Chakravarty, PK; Patchett, AA

>  <Institution>  (1) 
Merck Research Laboratories

>  <Link to Ligand in BindingDB>  (1) 
http://www.bindingdb.org/bind/chemsearch/marvin/MolStructure.jsp?monomerid=50042745

>  <Link to Ligand-Target Pair in BindingDB>  (1) 
http://www.bindingdb.org/jsp/dbsearch/PrimarySearch_ki.jsp?energyterm=kJ/mole&tag=r21&monomerid=50042745&enzyme=Type-1+angiotensin+II+receptor&column=ki&startPg=0&Increment=50&submit=Search

>  <Ligand HET ID in PDB>  (1) 


>  <PDB ID(s) for Ligand-Target Complex>  (1) 


>  <PubChem CID of Ligand>  (1) 
18950592

>  <PubChem SID of Ligand>  (1) 
103974310

>  <ChEBI ID of Ligand>  (1) 


>  <ChEMBL ID of Ligand>  (1) 
CHEMBL124541

>  <DrugBank ID of Ligand>  (1) 


>  <IUPHAR_GRAC ID of Ligand>  (1) 


>  <KEGG ID of Ligand>  (1) 


>  <ZINC ID of Ligand>  (1) 
ZINC13834063

>  <Number of Protein Chains in Target (bigger than 1 implies a multichain complex)>  (1) 
1

>  <BindingDB Target Chain Sequence>  (1) 
MMLNSSTEDGIKRIQDDCPKAGRHNYIFVMIPTLYSIIFVVGIFGNSLAVIVIYFYMKLKTVASVFLLNLALADLCFLLTLPLWAVYTAMEYRWPFGNYLCKIASASVSFNLYASVFLLTCLSIDRYLAIVHPMKSRLRRTMLVAKVTCIIIWLLAGLASLPAIIHRNVFFIENTNITVCAFHYESQNSTLPIGLGLTKNILGFLFPFLIILTSYTLIWKALKKAYEIQKNKPRNDDIFKIIMAIVLFFFFSWVPHQIFTFLDVLIQLGVIHDCRIADIVDTAMPITICIAYFNNCLNPLFYGFLGKKFKKYFLQLLKYIPPKAKSHSNLSTKMSTLSYRPSDNVSSSSKKPVPCFEVE

>  <PDB ID(s) of Target Chain>  (1) 
6DO1,6OS0,6OS1,6OS2

>  <UniProt (SwissProt) Recommended Name of Target Chain>  (1) 
Type-1 angiotensin II receptor

>  <UniProt (SwissProt) Entry Name of Target Chain>  (1) 
AGTR1_RABIT

>  <UniProt (SwissProt) Primary ID of Target Chain>  (1) 
P34976

>  <UniProt (SwissProt) Secondary ID(s) of Target Chain>  (1) 


>  <UniProt (SwissProt) Alternative ID(s) of Target Chain>  (1) 


>  <UniProt (TrEMBL) Submitted Name of Target Chain>  (1) 


>  <UniProt (TrEMBL) Entry Name of Target Chain>  (1) 


>  <UniProt (TrEMBL) Primary ID of Target Chain>  (1) 


>  <UniProt (TrEMBL) Secondary ID(s) of Target Chain>  (1) 


>  <UniProt (TrEMBL) Alternative ID(s) of Target Chain>  (1) 


$$$$
