
     RDKit          2D

 40 43  0  0  0  0  0  0  0  0999 V2000
    1.8792   -1.3292    0.0000 N   0  0  0  0  0  0  0  0  0  0  0  0
    1.3917   -1.6792    0.0000 C   0  0  0  0  0  0  0  0  0  0  0  0
    1.0917   -0.7542    0.0000 C   0  0  0  0  0  0  0  0  0  0  0  0
    0.9042   -1.3292    0.0000 N   0  0  0  0  0  0  0  0  0  0  0  0
    1.6917   -0.7542    0.0000 C   0  0  0  0  0  0  0  0  0  0  0  0
    0.7417   -0.2667    0.0000 C   0  0  0  0  0  0  0  0  0  0  0  0
   -0.2583    0.1208    0.0000 N   0  0  0  0  0  0  0  0  0  0  0  0
    0.1417   -0.3292    0.0000 C   0  0  0  0  0  0  0  0  0  0  0  0
   -0.8125   -0.6792    0.0000 N   0  0  0  0  0  0  0  0  0  0  0  0
   -0.8083   -0.1292    0.0000 C   0  0  0  0  0  0  0  0  0  0  0  0
   -0.1583   -0.8500    0.0000 C   0  0  0  0  0  0  0  0  0  0  0  0
    0.3375   -1.5125    0.0000 C   0  0  0  0  0  0  0  0  0  0  0  0
    2.1417    1.4458    0.0000 C   0  0  0  0  0  0  0  0  0  0  0  0
    1.4042   -2.0250    0.0000 O   0  0  0  0  0  0  0  0  0  0  0  0
   -0.1333    0.7083    0.0000 C   0  0  0  0  0  0  0  0  0  0  0  0
    2.0417   -0.2667    0.0000 O   0  0  0  0  0  0  0  0  0  0  0  0
    1.5667    1.3000    0.0000 C   0  0  0  0  0  0  0  0  0  0  0  0
    2.3167    2.0208    0.0000 O   0  0  0  0  0  0  0  0  0  0  0  0
    2.4417   -1.5125    0.0000 C   0  0  0  0  0  0  0  0  0  0  0  0
    1.1417    1.7125    0.0000 C   0  0  0  0  0  0  0  0  0  0  0  0
    1.4542    0.6708    0.0000 C   0  0  0  0  0  0  0  0  0  0  0  0
    0.4375    0.8875    0.0000 C   0  0  0  0  0  0  0  0  0  0  0  0
    0.2417   -2.1542    0.0000 C   0  0  0  0  0  0  0  0  0  0  0  0
    2.5625    1.0083    0.0000 O   0  0  0  0  0  0  0  0  0  0  0  0
    0.5625    1.4708    0.0000 C   0  0  0  0  0  0  0  0  0  0  0  0
    0.8792    0.4833    0.0000 C   0  0  0  0  0  0  0  0  0  0  0  0
   -0.3583   -2.3917    0.0000 C   0  0  0  0  0  0  0  0  0  0  0  0
   -1.3250    0.1708    0.0000 C   0  0  0  0  0  0  0  0  0  0  0  0
    3.1417    1.1500    0.0000 C   0  0  0  0  0  0  0  0  0  0  0  0
   -0.8625   -1.9917    0.0000 C   0  0  0  0  0  0  0  0  0  0  0  0
   -0.4458   -3.0292    0.0000 C   0  0  0  0  0  0  0  0  0  0  0  0
    2.5750   -2.1000    0.0000 C   0  0  0  0  0  0  0  0  0  0  0  0
   -1.8458   -0.1292    0.0000 C   0  0  0  0  0  0  0  0  0  0  0  0
   -2.3708    0.1708    0.0000 C   0  0  0  0  0  0  0  0  0  0  0  0
    3.1417   -2.2792    0.0000 C   0  0  0  0  0  0  0  0  0  0  0  0
   -2.8833   -0.1292    0.0000 C   0  0  0  0  0  0  0  0  0  0  0  0
    3.2667   -2.8667    0.0000 C   0  0  0  0  0  0  0  0  0  0  0  0
   -1.0375   -3.2750    0.0000 C   0  0  0  0  0  0  0  0  0  0  0  0
   -1.4625   -2.2292    0.0000 C   0  0  0  0  0  0  0  0  0  0  0  0
   -1.5583   -2.8750    0.0000 C   0  0  0  0  0  0  0  0  0  0  0  0
  2  1  1  0
  3  5  1  0
  4  2  1  0
  5  1  1  0
  6  3  2  0
  7  8  1  0
  8  6  1  0
  9 11  1  0
 10  7  1  0
 11  8  2  0
 12  4  1  0
 13 17  1  0
 14  2  2  0
 15  7  1  0
 16  5  2  0
 17 21  2  0
 18 13  2  0
 19  1  1  0
 20 25  2  0
 21 26  1  0
 22 15  1  0
 23 12  1  0
 24 13  1  0
 25 22  1  0
 26 22  2  0
 27 23  1  0
 28 10  1  0
 29 24  1  0
 30 27  2  0
 31 27  1  0
 32 19  1  0
 33 28  1  0
 34 33  1  0
 35 32  1  0
 36 34  1  0
 37 35  1  0
 38 31  2  0
 39 30  1  0
 40 38  1  0
  4  3  1  0
 10  9  2  0
 39 40  2  0
 17 20  1  0
M  END
>  <From>  (1) 
www.bindingDB.org

>  <BindingDB Reactant_set_id>  (1) 
51186068

>  <Ligand InChI>  (1) 
InChI=1S/C32H38N4O4/c1-4-6-13-29-33-22-27(36(29)23-25-14-16-26(17-15-25)31(38)40-3)21-28-30(37)35(19-7-5-2)32(39)34(28)20-18-24-11-9-8-10-12-24/h8-12,14-17,21-22H,4-7,13,18-20,23H2,1-3H3/b28-21-

>  <Ligand InChI Key>  (1) 
CXFPZCWCMDELAK-HFTWOUSFSA-N

>  <BindingDB MonomerID>  (1) 
50487686

>  <BindingDB Ligand Name>  (1) 
CHEMBL333058

>  <Target Name>  (1) 
Type-1 angiotensin II receptor

>  <Target Source Organism According to Curator or DataSource>  (1) 
Homo sapiens

>  <Ki (nM)>  (1) 


>  <IC50 (nM)>  (1) 
 31

>  <Kd (nM)>  (1) 


>  <EC50 (nM)>  (1) 


>  <kon (M-1-s-1)>  (1) 


>  <koff (s-1)>  (1) 


>  <pH>  (1) 


>  <Temp C>  (1) 


>  <Curation/DataSource>  (1) 
ChEMBL

>  <Article DOI>  (1) 
10.1007/s00044-009-9205-9

>  <BindingDB Entry DOI>  (1) 
10.7270/Q2CC13K2

>  <PMID>  (1) 


>  <PubChem AID>  (1) 


>  <Patent Number>  (1) 


>  <Authors>  (1) 
n/a

>  <Institution>  (1) 
n/a

>  <Link to Ligand in BindingDB>  (1) 
http://www.bindingdb.org/bind/chemsearch/marvin/MolStructure.jsp?monomerid=50487686

>  <Link to Ligand-Target Pair in BindingDB>  (1) 
http://www.bindingdb.org/jsp/dbsearch/PrimarySearch_ki.jsp?energyterm=kJ/mole&tag=r21&monomerid=50487686&enzyme=Type-1+angiotensin+II+receptor&column=ki&startPg=0&Increment=50&submit=Search

>  <Ligand HET ID in PDB>  (1) 


>  <PDB ID(s) for Ligand-Target Complex>  (1) 


>  <PubChem CID of Ligand>  (1) 
10459992

>  <PubChem SID of Ligand>  (1) 
433954951

>  <ChEBI ID of Ligand>  (1) 


>  <ChEMBL ID of Ligand>  (1) 


>  <DrugBank ID of Ligand>  (1) 


>  <IUPHAR_GRAC ID of Ligand>  (1) 


>  <KEGG ID of Ligand>  (1) 


>  <ZINC ID of Ligand>  (1) 


>  <Number of Protein Chains in Target (bigger than 1 implies a multichain complex)>  (1) 
1

>  <BindingDB Target Chain Sequence>  (1) 
MILNSSTEDGIKRIQDDCPKAGRHNYIFVMIPTLYSIIFVVGIFGNSLVVIVIYFYMKLKTVASVFLLNLALADLCFLLTLPLWAVYTAMEYRWPFGNYLCKIASASVSFNLYASVFLLTCLSIDRYLAIVHPMKSRLRRTMLVAKVTCIIIWLLAGLASLPAIIHRNVFFIENTNITVCAFHYESQNSTLPIGLGLTKNILGFLFPFLIILTSYTLIWKALKKAYEIQKNKPRNDDIFKIIMAIVLFFFFSWIPHQIFTFLDVLIQLGIIRDCRIADIVDTAMPITICIAYFNNCLNPLFYGFLGKKFKRYFLQLLKYIPPKAKSHSNLSTKMSTLSYRPSDNVSSSTKKPAPCFEVE

>  <PDB ID(s) of Target Chain>  (1) 
6DO1,6OS0,6OS1,6OS2

>  <UniProt (SwissProt) Recommended Name of Target Chain>  (1) 
Type-1 angiotensin II receptor

>  <UniProt (SwissProt) Entry Name of Target Chain>  (1) 
AGTR1_HUMAN

>  <UniProt (SwissProt) Primary ID of Target Chain>  (1) 
P30556

>  <UniProt (SwissProt) Secondary ID(s) of Target Chain>  (1) 
Q13725 Q8TBK4

>  <UniProt (SwissProt) Alternative ID(s) of Target Chain>  (1) 


>  <UniProt (TrEMBL) Submitted Name of Target Chain>  (1) 


>  <UniProt (TrEMBL) Entry Name of Target Chain>  (1) 


>  <UniProt (TrEMBL) Primary ID of Target Chain>  (1) 


>  <UniProt (TrEMBL) Secondary ID(s) of Target Chain>  (1) 


>  <UniProt (TrEMBL) Alternative ID(s) of Target Chain>  (1) 


$$$$
