
     RDKit          2D

 41 45  0  0  0  0  0  0  0  0999 V2000
    9.2560  -16.5336    0.0000 C   0  0  0  0  0  0  0  0  0  0  0  0
    9.2548  -17.3532    0.0000 C   0  0  0  0  0  0  0  0  0  0  0  0
    9.9629  -17.7621    0.0000 C   0  0  0  0  0  0  0  0  0  0  0  0
   10.6725  -17.3527    0.0000 C   0  0  0  0  0  0  0  0  0  0  0  0
   10.6697  -16.5300    0.0000 C   0  0  0  0  0  0  0  0  0  0  0  0
    9.9611  -16.1248    0.0000 C   0  0  0  0  0  0  0  0  0  0  0  0
   11.3809  -17.7602    0.0000 N   0  0  0  0  0  0  0  0  0  0  0  0
   12.0879  -17.3505    0.0000 C   0  0  0  0  0  0  0  0  0  0  0  0
   12.7963  -17.7580    0.0000 C   0  0  0  0  0  0  0  0  0  0  0  0
   12.0867  -16.5333    0.0000 O   0  0  0  0  0  0  0  0  0  0  0  0
   12.7929  -18.5736    0.0000 C   0  0  0  0  0  0  0  0  0  0  0  0
   13.5005  -18.9810    0.0000 C   0  0  0  0  0  0  0  0  0  0  0  0
   14.2085  -18.5713    0.0000 C   0  0  0  0  0  0  0  0  0  0  0  0
   14.2046  -17.7498    0.0000 C   0  0  0  0  0  0  0  0  0  0  0  0
   13.4965  -17.3461    0.0000 C   0  0  0  0  0  0  0  0  0  0  0  0
    8.5481  -16.1252    0.0000 C   0  0  0  0  0  0  0  0  0  0  0  0
    8.5480  -15.3080    0.0000 N   0  0  0  0  0  0  0  0  0  0  0  0
    9.2148  -14.8287    0.0000 C   0  0  0  0  0  0  0  0  0  0  0  0
    8.9621  -14.0516    0.0000 N   0  0  0  0  0  0  0  0  0  0  0  0
    8.1448  -14.0518    0.0000 N   0  0  0  0  0  0  0  0  0  0  0  0
    7.8926  -14.8291    0.0000 C   0  0  0  0  0  0  0  0  0  0  0  0
    7.1151  -15.0807    0.0000 C   0  0  0  0  0  0  0  0  0  0  0  0
    6.9442  -15.8798    0.0000 C   0  0  0  0  0  0  0  0  0  0  0  0
    7.5509  -16.4273    0.0000 C   0  0  0  0  0  0  0  0  0  0  0  0
   13.4858  -16.5280    0.0000 C   0  0  0  0  0  0  0  0  0  0  0  0
    9.9913  -15.0832    0.0000 S   0  0  0  0  0  0  0  0  0  0  0  0
   10.6000  -14.5378    0.0000 C   0  0  0  0  0  0  0  0  0  0  0  0
   14.1378  -16.0377    0.0000 N   0  0  0  0  0  0  0  0  0  0  0  0
   13.8749  -15.2628    0.0000 N   0  0  0  0  0  0  0  0  0  0  0  0
   13.0567  -15.2735    0.0000 N   0  0  0  0  0  0  0  0  0  0  0  0
   12.8141  -16.0549    0.0000 N   0  0  0  0  0  0  0  0  0  0  0  0
   10.4320  -13.7381    0.0000 C   0  0  0  0  0  0  0  0  0  0  0  0
   11.0429  -13.1978    0.0000 C   0  0  0  0  0  0  0  0  0  0  0  0
   10.8755  -12.3987    0.0000 C   0  0  0  0  0  0  0  0  0  0  0  0
   10.0982  -12.1436    0.0000 C   0  0  0  0  0  0  0  0  0  0  0  0
    9.4882  -12.6937    0.0000 C   0  0  0  0  0  0  0  0  0  0  0  0
    9.6588  -13.4907    0.0000 C   0  0  0  0  0  0  0  0  0  0  0  0
    7.3800  -17.2265    0.0000 C   0  0  0  0  0  0  0  0  0  0  0  0
    9.9266  -11.3404    0.0000 N   0  0  0  0  0  0  0  0  0  0  0  0
    9.1497  -11.0870    0.0000 O   0  0  0  0  0  0  0  0  0  0  0  0
   10.5345  -10.7943    0.0000 O   0  0  0  0  0  0  0  0  0  0  0  0
  1  2  2  0
  2  3  1  0
  3  4  2  0
  4  5  1  0
  5  6  2  0
  6  1  1  0
  4  7  1  0
  7  8  1  0
  8  9  1  0
  8 10  2  0
  9 11  2  0
 11 12  1  0
 12 13  2  0
 13 14  1  0
 14 15  2  0
 15  9  1  0
  1 16  1  0
 16 17  1  0
 17 18  1  0
 18 19  2  0
 19 20  1  0
 20 21  2  0
 21 17  1  0
 21 22  1  0
 22 23  1  0
 23 24  1  0
 15 25  1  0
 18 26  1  0
 26 27  1  0
 25 28  2  0
 28 29  1  0
 29 30  2  0
 30 31  1  0
 31 25  1  0
 27 32  1  0
 32 33  2  0
 33 34  1  0
 34 35  2  0
 35 36  1  0
 36 37  2  0
 37 32  1  0
 24 38  1  0
 39 40  2  0
 39 41  1  0
 35 39  1  0
M  CHG  2  39   1  41  -1
M  END
>  <From>  (1) 
www.bindingDB.org

>  <BindingDB Reactant_set_id>  (1) 
51183580

>  <Ligand InChI>  (1) 
InChI=1S/C28H27N9O3S/c1-2-3-8-25-30-33-28(41-18-20-11-15-22(16-12-20)37(39)40)36(25)17-19-9-13-21(14-10-19)29-27(38)24-7-5-4-6-23(24)26-31-34-35-32-26/h4-7,9-16H,2-3,8,17-18H2,1H3,(H,29,38)(H,31,32,34,35)

>  <Ligand InChI Key>  (1) 
IVHIYOHUWNXHCH-UHFFFAOYSA-N

>  <BindingDB MonomerID>  (1) 
50486764

>  <BindingDB Ligand Name>  (1) 
CHEMBL2237595

>  <Target Name>  (1) 
Type-1 angiotensin II receptor

>  <Target Source Organism According to Curator or DataSource>  (1) 
Oryctolagus cuniculus

>  <Ki (nM)>  (1) 


>  <IC50 (nM)>  (1) 
 6.6

>  <Kd (nM)>  (1) 


>  <EC50 (nM)>  (1) 


>  <kon (M-1-s-1)>  (1) 


>  <koff (s-1)>  (1) 


>  <pH>  (1) 


>  <Temp C>  (1) 


>  <Curation/DataSource>  (1) 
ChEMBL

>  <Article DOI>  (1) 
10.1007/s00044-011-9756-4

>  <BindingDB Entry DOI>  (1) 
10.7270/Q2833VXQ

>  <PMID>  (1) 


>  <PubChem AID>  (1) 


>  <Patent Number>  (1) 


>  <Authors>  (1) 
n/a

>  <Institution>  (1) 
n/a

>  <Link to Ligand in BindingDB>  (1) 
http://www.bindingdb.org/bind/chemsearch/marvin/MolStructure.jsp?monomerid=50486764

>  <Link to Ligand-Target Pair in BindingDB>  (1) 
http://www.bindingdb.org/jsp/dbsearch/PrimarySearch_ki.jsp?energyterm=kJ/mole&tag=r21&monomerid=50486764&enzyme=Type-1+angiotensin+II+receptor&column=ki&startPg=0&Increment=50&submit=Search

>  <Ligand HET ID in PDB>  (1) 


>  <PDB ID(s) for Ligand-Target Complex>  (1) 


>  <PubChem CID of Ligand>  (1) 
76311802

>  <PubChem SID of Ligand>  (1) 
433954029

>  <ChEBI ID of Ligand>  (1) 


>  <ChEMBL ID of Ligand>  (1) 


>  <DrugBank ID of Ligand>  (1) 


>  <IUPHAR_GRAC ID of Ligand>  (1) 


>  <KEGG ID of Ligand>  (1) 


>  <ZINC ID of Ligand>  (1) 


>  <Number of Protein Chains in Target (bigger than 1 implies a multichain complex)>  (1) 
1

>  <BindingDB Target Chain Sequence>  (1) 
MMLNSSTEDGIKRIQDDCPKAGRHNYIFVMIPTLYSIIFVVGIFGNSLAVIVIYFYMKLKTVASVFLLNLALADLCFLLTLPLWAVYTAMEYRWPFGNYLCKIASASVSFNLYASVFLLTCLSIDRYLAIVHPMKSRLRRTMLVAKVTCIIIWLLAGLASLPAIIHRNVFFIENTNITVCAFHYESQNSTLPIGLGLTKNILGFLFPFLIILTSYTLIWKALKKAYEIQKNKPRNDDIFKIIMAIVLFFFFSWVPHQIFTFLDVLIQLGVIHDCRIADIVDTAMPITICIAYFNNCLNPLFYGFLGKKFKKYFLQLLKYIPPKAKSHSNLSTKMSTLSYRPSDNVSSSSKKPVPCFEVE

>  <PDB ID(s) of Target Chain>  (1) 
6DO1,6OS0,6OS1,6OS2

>  <UniProt (SwissProt) Recommended Name of Target Chain>  (1) 
Type-1 angiotensin II receptor

>  <UniProt (SwissProt) Entry Name of Target Chain>  (1) 
AGTR1_RABIT

>  <UniProt (SwissProt) Primary ID of Target Chain>  (1) 
P34976

>  <UniProt (SwissProt) Secondary ID(s) of Target Chain>  (1) 


>  <UniProt (SwissProt) Alternative ID(s) of Target Chain>  (1) 


>  <UniProt (TrEMBL) Submitted Name of Target Chain>  (1) 


>  <UniProt (TrEMBL) Entry Name of Target Chain>  (1) 


>  <UniProt (TrEMBL) Primary ID of Target Chain>  (1) 


>  <UniProt (TrEMBL) Secondary ID(s) of Target Chain>  (1) 


>  <UniProt (TrEMBL) Alternative ID(s) of Target Chain>  (1) 


$$$$
