
     RDKit          2D

 39 42  0  0  0  0  0  0  0  0999 V2000
    0.7792   -1.5167    0.0000 N   0  0  0  0  0  0  0  0  0  0  0  0
    1.4500   -1.0292    0.0000 C   0  0  0  0  0  0  0  0  0  0  0  0
    1.1917   -0.2417    0.0000 N   0  0  0  0  0  0  0  0  0  0  0  0
    0.3667   -0.2417    0.0000 N   0  0  0  0  0  0  0  0  0  0  0  0
    0.1167   -1.0292    0.0000 C   0  0  0  0  0  0  0  0  0  0  0  0
    4.3542   -3.5792    0.0000 C   0  0  0  0  0  0  0  0  0  0  0  0
    5.0667   -3.9917    0.0000 C   0  0  0  0  0  0  0  0  0  0  0  0
    5.7792   -3.5792    0.0000 C   0  0  0  0  0  0  0  0  0  0  0  0
    5.7667   -2.7500    0.0000 C   0  0  0  0  0  0  0  0  0  0  0  0
    3.6417   -3.9917    0.0000 N   0  0  0  0  0  0  0  0  0  0  0  0
    3.5000    1.1125    0.0000 C   0  0  0  0  0  0  0  0  0  0  0  0
    2.2750   -1.0292    0.0000 S   0  0  0  0  0  0  0  0  0  0  0  0
    0.7792   -2.3417    0.0000 C   0  0  0  0  0  0  0  0  0  0  0  0
    3.9167    0.4000    0.0000 C   0  0  0  0  0  0  0  0  0  0  0  0
    4.3542   -2.7542    0.0000 O   0  0  0  0  0  0  0  0  0  0  0  0
    3.5042   -0.3125    0.0000 C   0  0  0  0  0  0  0  0  0  0  0  0
    2.6792   -0.3125    0.0000 C   0  0  0  0  0  0  0  0  0  0  0  0
    5.0542   -2.3417    0.0000 O   0  0  0  0  0  0  0  0  0  0  0  0
    2.6750    1.1125    0.0000 O   0  0  0  0  0  0  0  0  0  0  0  0
    2.9250   -3.5792    0.0000 C   0  0  0  0  0  0  0  0  0  0  0  0
    1.4917   -2.7542    0.0000 C   0  0  0  0  0  0  0  0  0  0  0  0
    6.4792   -2.3292    0.0000 O   0  0  0  0  0  0  0  0  0  0  0  0
    3.9042    1.8333    0.0000 O   0  0  0  0  0  0  0  0  0  0  0  0
    2.9250   -2.7542    0.0000 C   0  0  0  0  0  0  0  0  0  0  0  0
    2.2167   -3.9917    0.0000 C   0  0  0  0  0  0  0  0  0  0  0  0
    1.5000   -3.5792    0.0000 C   0  0  0  0  0  0  0  0  0  0  0  0
    2.2125   -2.3417    0.0000 C   0  0  0  0  0  0  0  0  0  0  0  0
   -0.7083   -1.0292    0.0000 C   0  0  0  0  0  0  0  0  0  0  0  0
    5.0667   -4.8167    0.0000 C   0  0  0  0  0  0  0  0  0  0  0  0
    6.4917   -3.9875    0.0000 C   0  0  0  0  0  0  0  0  0  0  0  0
    4.7375    0.4000    0.0000 C   0  0  0  0  0  0  0  0  0  0  0  0
    3.9167   -1.0292    0.0000 C   0  0  0  0  0  0  0  0  0  0  0  0
   -1.1208   -0.3167    0.0000 C   0  0  0  0  0  0  0  0  0  0  0  0
   -1.9458   -0.3167    0.0000 C   0  0  0  0  0  0  0  0  0  0  0  0
    6.4917   -4.8167    0.0000 C   0  0  0  0  0  0  0  0  0  0  0  0
    5.7792   -5.2292    0.0000 C   0  0  0  0  0  0  0  0  0  0  0  0
    5.1542   -0.3167    0.0000 C   0  0  0  0  0  0  0  0  0  0  0  0
   -2.3583    0.4000    0.0000 C   0  0  0  0  0  0  0  0  0  0  0  0
    4.7417   -1.0292    0.0000 C   0  0  0  0  0  0  0  0  0  0  0  0
  2  1  1  0
  3  2  2  0
  4  5  2  0
  5  1  1  0
  6 10  1  0
  7  6  1  0
  8  7  2  0
  9  8  1  0
 10 20  1  0
 11 14  1  0
 12  2  1  0
 13  1  1  0
 14 16  2  0
 15  6  2  0
 16 17  1  0
 17 12  1  0
 18  9  2  0
 19 11  2  0
 20 24  2  0
 21 13  1  0
 22  9  1  0
 23 11  1  0
 24 27  1  0
 25 26  2  0
 26 21  1  0
 27 21  2  0
 28  5  1  0
 29  7  1  0
 30  8  1  0
 31 14  1  0
 32 16  1  0
 33 28  1  0
 34 33  1  0
 35 36  1  0
 36 29  2  0
 37 39  1  0
 38 34  1  0
 39 32  2  0
  3  4  1  0
 25 20  1  0
 31 37  2  0
 35 30  2  0
M  END
>  <From>  (1) 
www.bindingDB.org

>  <BindingDB Reactant_set_id>  (1) 
50035023

>  <Ligand InChI>  (1) 
InChI=1S/C29H28N4O5S/c1-2-3-12-25-31-32-29(39-18-20-8-4-5-9-22(20)27(35)36)33(25)17-19-13-15-21(16-14-19)30-26(34)23-10-6-7-11-24(23)28(37)38/h4-11,13-16H,2-3,12,17-18H2,1H3,(H,30,34)(H,35,36)(H,37,38)

>  <Ligand InChI Key>  (1) 
GYMMKEUZHUBKQP-UHFFFAOYSA-N

>  <BindingDB MonomerID>  (1) 
50047789

>  <BindingDB Ligand Name>  (1) 
2-{4-[3-butyl-5-(2-carboxybenzylsulfanyl)-4H-1,2,4-triazol-4-ylmethyl]phenylcarbamoyl}benzoic acid::CHEMBL345570

>  <Target Name>  (1) 
Type-1 angiotensin II receptor

>  <Target Source Organism According to Curator or DataSource>  (1) 
Oryctolagus cuniculus

>  <Ki (nM)>  (1) 


>  <IC50 (nM)>  (1) 
 3.3

>  <Kd (nM)>  (1) 


>  <EC50 (nM)>  (1) 


>  <kon (M-1-s-1)>  (1) 


>  <koff (s-1)>  (1) 


>  <pH>  (1) 


>  <Temp C>  (1) 


>  <Curation/DataSource>  (1) 
ChEMBL

>  <Article DOI>  (1) 
10.1021/jm00057a009

>  <BindingDB Entry DOI>  (1) 
10.7270/Q2P55MKH

>  <PMID>  (1) 
8496939

>  <PubChem AID>  (1) 


>  <Patent Number>  (1) 


>  <Authors>  (1) 
Ashton, WT; Cantone, CL; Chang, LL; Hutchins, SM; Strelitz, RA; MacCoss, M; Chang, RS; Lotti, VJ; Faust, KA; Chen, TB

>  <Institution>  (1) 
Merck Research Laboratories

>  <Link to Ligand in BindingDB>  (1) 
http://www.bindingdb.org/bind/chemsearch/marvin/MolStructure.jsp?monomerid=50047789

>  <Link to Ligand-Target Pair in BindingDB>  (1) 
http://www.bindingdb.org/jsp/dbsearch/PrimarySearch_ki.jsp?energyterm=kJ/mole&tag=r21&monomerid=50047789&enzyme=Type-1+angiotensin+II+receptor&column=ki&startPg=0&Increment=50&submit=Search

>  <Ligand HET ID in PDB>  (1) 


>  <PDB ID(s) for Ligand-Target Complex>  (1) 


>  <PubChem CID of Ligand>  (1) 
10053126

>  <PubChem SID of Ligand>  (1) 
103978353

>  <ChEBI ID of Ligand>  (1) 


>  <ChEMBL ID of Ligand>  (1) 
CHEMBL345570

>  <DrugBank ID of Ligand>  (1) 


>  <IUPHAR_GRAC ID of Ligand>  (1) 


>  <KEGG ID of Ligand>  (1) 
C06374

>  <ZINC ID of Ligand>  (1) 
ZINC27705025

>  <Number of Protein Chains in Target (bigger than 1 implies a multichain complex)>  (1) 
1

>  <BindingDB Target Chain Sequence>  (1) 
MMLNSSTEDGIKRIQDDCPKAGRHNYIFVMIPTLYSIIFVVGIFGNSLAVIVIYFYMKLKTVASVFLLNLALADLCFLLTLPLWAVYTAMEYRWPFGNYLCKIASASVSFNLYASVFLLTCLSIDRYLAIVHPMKSRLRRTMLVAKVTCIIIWLLAGLASLPAIIHRNVFFIENTNITVCAFHYESQNSTLPIGLGLTKNILGFLFPFLIILTSYTLIWKALKKAYEIQKNKPRNDDIFKIIMAIVLFFFFSWVPHQIFTFLDVLIQLGVIHDCRIADIVDTAMPITICIAYFNNCLNPLFYGFLGKKFKKYFLQLLKYIPPKAKSHSNLSTKMSTLSYRPSDNVSSSSKKPVPCFEVE

>  <PDB ID(s) of Target Chain>  (1) 
6DO1,6OS0,6OS1,6OS2

>  <UniProt (SwissProt) Recommended Name of Target Chain>  (1) 
Type-1 angiotensin II receptor

>  <UniProt (SwissProt) Entry Name of Target Chain>  (1) 
AGTR1_RABIT

>  <UniProt (SwissProt) Primary ID of Target Chain>  (1) 
P34976

>  <UniProt (SwissProt) Secondary ID(s) of Target Chain>  (1) 


>  <UniProt (SwissProt) Alternative ID(s) of Target Chain>  (1) 


>  <UniProt (TrEMBL) Submitted Name of Target Chain>  (1) 


>  <UniProt (TrEMBL) Entry Name of Target Chain>  (1) 


>  <UniProt (TrEMBL) Primary ID of Target Chain>  (1) 


>  <UniProt (TrEMBL) Secondary ID(s) of Target Chain>  (1) 


>  <UniProt (TrEMBL) Alternative ID(s) of Target Chain>  (1) 


$$$$
