
     RDKit          2D

 29 32  0  0  0  0  0  0  0  0999 V2000
    2.6096   -4.0376    0.0000 C   0  0  0  0  0  0  0  0  0  0  0  0
    2.6096   -3.1983    0.0000 N   0  0  0  0  0  0  0  0  0  0  0  0
    1.8831   -4.4509    0.0000 N   0  0  0  0  0  0  0  0  0  0  0  0
    1.8831   -2.7850    0.0000 C   0  0  0  0  0  0  0  0  0  0  0  0
    1.1691   -3.1983    0.0000 C   0  0  0  0  0  0  0  0  0  0  0  0
    1.1691   -4.0376    0.0000 C   0  0  0  0  0  0  0  0  0  0  0  0
    4.0250   -8.1711    0.0000 C   0  0  0  0  0  0  0  0  0  0  0  0
    2.7223   -8.4467    0.0000 N   0  0  0  0  0  0  0  0  0  0  0  0
    3.2735   -7.8329    0.0000 N   0  0  0  0  0  0  0  0  0  0  0  0
    3.1315   -9.1606    0.0000 N   0  0  0  0  0  0  0  0  0  0  0  0
    3.9373   -8.9936    0.0000 N   0  0  0  0  0  0  0  0  0  0  0  0
    4.7390   -7.7577    0.0000 C   0  0  0  0  0  0  0  0  0  0  0  0
    4.7390   -6.9268    0.0000 C   0  0  0  0  0  0  0  0  0  0  0  0
    1.8831   -5.2776    0.0000 C   0  0  0  0  0  0  0  0  0  0  0  0
    3.3236   -4.4509    0.0000 O   0  0  0  0  0  0  0  0  0  0  0  0
    4.0333   -6.5177    0.0000 C   0  0  0  0  0  0  0  0  0  0  0  0
    1.8831   -1.9583    0.0000 O   0  0  0  0  0  0  0  0  0  0  0  0
    3.3236   -2.7850    0.0000 C   0  0  0  0  0  0  0  0  0  0  0  0
    3.3110   -6.9310    0.0000 C   0  0  0  0  0  0  0  0  0  0  0  0
    4.0250   -5.6868    0.0000 C   0  0  0  0  0  0  0  0  0  0  0  0
    2.5971   -5.6910    0.0000 C   0  0  0  0  0  0  0  0  0  0  0  0
    0.4551   -4.4509    0.0000 C   0  0  0  0  0  0  0  0  0  0  0  0
    3.3110   -5.2776    0.0000 C   0  0  0  0  0  0  0  0  0  0  0  0
    2.5971   -6.5177    0.0000 C   0  0  0  0  0  0  0  0  0  0  0  0
    5.4530   -8.1711    0.0000 C   0  0  0  0  0  0  0  0  0  0  0  0
    5.4530   -6.5177    0.0000 C   0  0  0  0  0  0  0  0  0  0  0  0
   -0.2588   -4.0376    0.0000 C   0  0  0  0  0  0  0  0  0  0  0  0
    6.1670   -6.9268    0.0000 C   0  0  0  0  0  0  0  0  0  0  0  0
    6.1753   -7.7577    0.0000 C   0  0  0  0  0  0  0  0  0  0  0  0
  2  1  1  0
  3  1  1  0
  4  2  1  0
  5  6  2  0
  6  3  1  0
  7 12  1  0
  8  9  1  0
  9  7  1  0
 10 11  1  0
 11  7  2  0
 12 13  1  0
 13 16  1  0
 14  3  1  0
 15  1  2  0
 16 19  2  0
 17  4  2  0
 18  2  1  0
 19 24  1  0
 20 23  2  0
 21 14  1  0
 22  6  1  0
 23 21  1  0
 24 21  2  0
 25 12  2  0
 26 13  2  0
 27 22  1  0
 28 26  1  0
 29 28  2  0
  4  5  1  0
 16 20  1  0
 25 29  1  0
  8 10  2  0
M  END
>  <From>  (1) 
www.bindingDB.org

>  <BindingDB Reactant_set_id>  (1) 
50473199

>  <Ligand InChI>  (1) 
InChI=1S/C21H20N6O2/c1-3-16-12-19(28)26(2)21(29)27(16)13-14-8-10-15(11-9-14)17-6-4-5-7-18(17)20-22-24-25-23-20/h4-12H,3,13H2,1-2H3,(H,22,23,24,25)

>  <Ligand InChI Key>  (1) 
XEZRIERFVAMMEC-UHFFFAOYSA-N

>  <BindingDB MonomerID>  (1) 
50285176

>  <BindingDB Ligand Name>  (1) 
6-Ethyl-3-methyl-1-[2'-(1H-tetrazol-5-yl)-biphenyl-4-ylmethyl]-1H-pyrimidine-2,4-dione::CHEMBL294075

>  <Target Name>  (1) 
Type-1 angiotensin II receptor

>  <Target Source Organism According to Curator or DataSource>  (1) 
Bos taurus

>  <Ki (nM)>  (1) 


>  <IC50 (nM)>  (1) 
 1000

>  <Kd (nM)>  (1) 


>  <EC50 (nM)>  (1) 


>  <kon (M-1-s-1)>  (1) 


>  <koff (s-1)>  (1) 


>  <pH>  (1) 


>  <Temp C>  (1) 


>  <Curation/DataSource>  (1) 
ChEMBL

>  <Article DOI>  (1) 
10.1016/0960-894X(95)00370-9

>  <BindingDB Entry DOI>  (1) 
10.7270/Q2SF2W4J

>  <PMID>  (1) 


>  <PubChem AID>  (1) 


>  <Patent Number>  (1) 


>  <Authors>  (1) 
Dorsch, D; Mederski, WW; Osswald, M; Beier, N; Schelling, P

>  <Institution>  (1) 
TBA

>  <Link to Ligand in BindingDB>  (1) 
http://www.bindingdb.org/bind/chemsearch/marvin/MolStructure.jsp?monomerid=50285176

>  <Link to Ligand-Target Pair in BindingDB>  (1) 
http://www.bindingdb.org/jsp/dbsearch/PrimarySearch_ki.jsp?energyterm=kJ/mole&tag=r21&monomerid=50285176&enzyme=Type-1+angiotensin+II+receptor&column=ki&startPg=0&Increment=50&submit=Search

>  <Ligand HET ID in PDB>  (1) 


>  <PDB ID(s) for Ligand-Target Complex>  (1) 


>  <PubChem CID of Ligand>  (1) 
44305441

>  <PubChem SID of Ligand>  (1) 
104126747

>  <ChEBI ID of Ligand>  (1) 


>  <ChEMBL ID of Ligand>  (1) 
CHEMBL294075

>  <DrugBank ID of Ligand>  (1) 


>  <IUPHAR_GRAC ID of Ligand>  (1) 


>  <KEGG ID of Ligand>  (1) 


>  <ZINC ID of Ligand>  (1) 
ZINC26180126

>  <Number of Protein Chains in Target (bigger than 1 implies a multichain complex)>  (1) 
1

>  <BindingDB Target Chain Sequence>  (1) 
MILNSSTEDGIKRIQDDCPKAGRHNYIFIMIPTLYSIIFVVGIFGNSLVVIVIYFYMKLKTVASVFLLNLALADLCFLLTLPLWAVYTAMEYRWPFGNYLCKIASASVSFNLYASVFLLTCLSIDRYLAIVHPMKSRLRRTMLVAKVTCIIIWLLAGLASLPTIIHRNVFFIENTNITVCAFHYESQNSTLPVGLGLTKNILGFLFPFLIILTSYTLIWKTLKKAYEIQKNKPRKDDIFKIILAIVLFFFFSWVPHQIFTFMDVLIQLGLIRDCKIEDIVDTAMPITICLAYFNNCLNPLFYGFLGKKFKKYFLQLLKYIPPKAKSHSNLSTKMSTLSYRPSENGNSSTKKPAPCIEVE

>  <PDB ID(s) of Target Chain>  (1) 


>  <UniProt (SwissProt) Recommended Name of Target Chain>  (1) 
Type-1 angiotensin II receptor

>  <UniProt (SwissProt) Entry Name of Target Chain>  (1) 
AGTR1_BOVIN

>  <UniProt (SwissProt) Primary ID of Target Chain>  (1) 
P25104

>  <UniProt (SwissProt) Secondary ID(s) of Target Chain>  (1) 


>  <UniProt (SwissProt) Alternative ID(s) of Target Chain>  (1) 


>  <UniProt (TrEMBL) Submitted Name of Target Chain>  (1) 


>  <UniProt (TrEMBL) Entry Name of Target Chain>  (1) 


>  <UniProt (TrEMBL) Primary ID of Target Chain>  (1) 


>  <UniProt (TrEMBL) Secondary ID(s) of Target Chain>  (1) 


>  <UniProt (TrEMBL) Alternative ID(s) of Target Chain>  (1) 


$$$$
