
     RDKit          2D

 50 56  0  0  0  0  0  0  0  0999 V2000
   11.0576   -2.1902    0.0000 C   0  0  0  0  0  0  0  0  0  0  0  0
    6.6773   -2.1817    0.0000 N   0  0  0  0  0  0  0  0  0  0  0  0
    5.9472   -1.7974    0.0000 C   0  0  0  0  0  0  0  0  0  0  0  0
    5.2172   -2.1817    0.0000 C   0  0  0  0  0  0  0  0  0  0  0  0
   11.4931   -1.0246    0.0000 N   0  0  0  0  0  0  0  0  0  0  0  0
   10.3788   -1.7334    0.0000 N   0  0  0  0  0  0  0  0  0  0  0  0
   11.7493   -1.7419    0.0000 N   0  0  0  0  0  0  0  0  0  0  0  0
   10.6606   -1.0161    0.0000 N   0  0  0  0  0  0  0  0  0  0  0  0
    3.0142   -1.7974    0.0000 N   0  0  0  0  0  0  0  0  0  0  0  0
    3.0142   -1.0289    0.0000 C   0  0  0  0  0  0  0  0  0  0  0  0
    5.9472   -3.3344    0.0000 N   0  0  0  0  0  0  0  0  0  0  0  0
   11.0576   -2.9501    0.0000 C   0  0  0  0  0  0  0  0  0  0  0  0
    6.6773   -2.9501    0.0000 C   0  0  0  0  0  0  0  0  0  0  0  0
    4.4743   -1.7974    0.0000 C   0  0  0  0  0  0  0  0  0  0  0  0
    3.7442   -2.1817    0.0000 C   0  0  0  0  0  0  0  0  0  0  0  0
    5.2044   -2.9458    0.0000 C   0  0  0  0  0  0  0  0  0  0  0  0
   10.3276   -3.3344    0.0000 C   0  0  0  0  0  0  0  0  0  0  0  0
   -0.5464   -0.3629    0.0000 C   0  0  0  0  0  0  0  0  0  0  0  0
    7.4073   -1.7974    0.0000 C   0  0  0  0  0  0  0  0  0  0  0  0
    2.2841   -2.1774    0.0000 C   0  0  0  0  0  0  0  0  0  0  0  0
    9.5975   -2.9501    0.0000 C   0  0  0  0  0  0  0  0  0  0  0  0
    5.9472   -1.0289    0.0000 O   0  0  0  0  0  0  0  0  0  0  0  0
    0.1580   -0.8197    0.0000 C   0  0  0  0  0  0  0  0  0  0  0  0
    2.2841   -0.6532    0.0000 O   0  0  0  0  0  0  0  0  0  0  0  0
    3.7314   -0.5935    0.0000 C   0  0  0  0  0  0  0  0  0  0  0  0
    3.7442   -2.9501    0.0000 C   0  0  0  0  0  0  0  0  0  0  0  0
   -1.3021   -0.7472    0.0000 O   0  0  0  0  0  0  0  0  0  0  0  0
    4.4743   -3.3344    0.0000 C   0  0  0  0  0  0  0  0  0  0  0  0
    9.5975   -2.1817    0.0000 C   0  0  0  0  0  0  0  0  0  0  0  0
    8.8675   -3.3344    0.0000 C   0  0  0  0  0  0  0  0  0  0  0  0
    0.9137   -0.4270    0.0000 C   0  0  0  0  0  0  0  0  0  0  0  0
    0.1196   -1.6565    0.0000 C   0  0  0  0  0  0  0  0  0  0  0  0
    8.1374   -2.1817    0.0000 C   0  0  0  0  0  0  0  0  0  0  0  0
    1.5669   -1.7206    0.0000 C   0  0  0  0  0  0  0  0  0  0  0  0
   -0.5080    0.4824    0.0000 O   0  0  0  0  0  0  0  0  0  0  0  0
    9.5719   -1.9639    0.0000 C   0  0  0  0  0  0  0  0  0  0  0  0
    1.6181   -0.8838    0.0000 C   0  0  0  0  0  0  0  0  0  0  0  0
    0.8368   -2.1133    0.0000 C   0  0  0  0  0  0  0  0  0  0  0  0
    8.8675   -1.7974    0.0000 C   0  0  0  0  0  0  0  0  0  0  0  0
    8.1374   -2.9501    0.0000 C   0  0  0  0  0  0  0  0  0  0  0  0
   11.7877   -3.3344    0.0000 C   0  0  0  0  0  0  0  0  0  0  0  0
   10.3276   -4.1029    0.0000 C   0  0  0  0  0  0  0  0  0  0  0  0
    4.4743   -1.0033    0.0000 C   0  0  0  0  0  0  0  0  0  0  0  0
    3.7186    0.2519    0.0000 C   0  0  0  0  0  0  0  0  0  0  0  0
    0.2348    0.8709    0.0000 C   0  0  0  0  0  0  0  0  0  0  0  0
   11.8005   -4.1029    0.0000 C   0  0  0  0  0  0  0  0  0  0  0  0
   11.0576   -4.4828    0.0000 C   0  0  0  0  0  0  0  0  0  0  0  0
    5.1916   -0.5636    0.0000 C   0  0  0  0  0  0  0  0  0  0  0  0
    4.4359    0.6873    0.0000 C   0  0  0  0  0  0  0  0  0  0  0  0
    5.1787    0.2818    0.0000 C   0  0  0  0  0  0  0  0  0  0  0  0
  2 19  1  0
  3  2  1  0
  4  3  1  0
  5  7  1  0
  6  1  1  0
  7  1  2  0
  8  6  1  0
  9 15  1  0
 10  9  1  0
 11 13  2  0
 12  1  1  0
 13  2  1  0
 14  4  2  0
 15 14  1  0
 16 11  1  0
 17 12  1  0
 18 23  1  0
 19 33  1  0
 20  9  1  0
 21 17  1  0
 22  3  2  0
 23 32  2  0
 24 10  2  0
 25 10  1  0
 26 28  1  0
 27 18  2  0
 28 16  2  0
 29 21  2  0
 30 21  1  0
 31 37  2  0
 32 38  1  0
 33 40  1  0
 34 20  1  0
 35 18  1  0
 36  6  1  0
 37 34  1  0
 38 34  2  0
 39 29  1  0
 40 30  2  0
 41 12  2  0
 42 17  2  0
 43 25  2  0
 44 25  1  0
 45 35  1  0
 46 41  1  0
 47 46  2  0
 48 43  1  0
 49 44  2  0
 50 49  1  0
  5  8  2  0
 42 47  1  0
 39 33  2  0
  4 16  1  0
 15 26  2  0
 23 31  1  0
 48 50  2  0
M  END
>  <From>  (1) 
www.bindingDB.org

>  <BindingDB Reactant_set_id>  (1) 
50472051

>  <Ligand InChI>  (1) 
InChI=1S/C39H31N7O4/c1-44-36(41-42-43-44)33-11-7-6-10-32(33)28-16-12-26(13-17-28)23-45-25-40-35-21-20-31(22-34(35)38(45)48)46(37(47)29-8-4-3-5-9-29)24-27-14-18-30(19-15-27)39(49)50-2/h3-22,25H,23-24H2,1-2H3

>  <Ligand InChI Key>  (1) 
FSHLHARKLSDZEH-UHFFFAOYSA-N

>  <BindingDB MonomerID>  (1) 
50284641

>  <BindingDB Ligand Name>  (1) 
4-[(Benzoyl-{3-[2'-(1-methyl-1H-tetrazol-5-yl)-biphenyl-4-ylmethyl]-4-oxo-3,4-dihydro-quinazolin-6-yl}-amino)-methyl]-benzoic acid methyl ester::CHEMBL282778

>  <Target Name>  (1) 
Type-1 angiotensin II receptor

>  <Target Source Organism According to Curator or DataSource>  (1) 
Homo sapiens

>  <Ki (nM)>  (1) 


>  <IC50 (nM)>  (1) 
 9.6

>  <Kd (nM)>  (1) 


>  <EC50 (nM)>  (1) 


>  <kon (M-1-s-1)>  (1) 


>  <koff (s-1)>  (1) 


>  <pH>  (1) 


>  <Temp C>  (1) 


>  <Curation/DataSource>  (1) 
ChEMBL

>  <Article DOI>  (1) 
10.1016/0960-894X(95)00224-H

>  <BindingDB Entry DOI>  (1) 
10.7270/Q2086589

>  <PMID>  (1) 


>  <PubChem AID>  (1) 


>  <Patent Number>  (1) 


>  <Authors>  (1) 
de Laszlo, SE; Chang, RS; Chen, TB; Faust, KA; Greenlee, WJ; Kivlighn, SD; Lotti, VJ; O'Malley, SS; Schorn, TW; Schorn, TW; Siegl, PK; Tran, J; Zingaro, GJ

>  <Institution>  (1) 
TBA

>  <Link to Ligand in BindingDB>  (1) 
http://www.bindingdb.org/bind/chemsearch/marvin/MolStructure.jsp?monomerid=50284641

>  <Link to Ligand-Target Pair in BindingDB>  (1) 
http://www.bindingdb.org/jsp/dbsearch/PrimarySearch_ki.jsp?energyterm=kJ/mole&tag=r21&monomerid=50284641&enzyme=Type-1+angiotensin+II+receptor&column=ki&startPg=0&Increment=50&submit=Search

>  <Ligand HET ID in PDB>  (1) 


>  <PDB ID(s) for Ligand-Target Complex>  (1) 


>  <PubChem CID of Ligand>  (1) 
44277593

>  <PubChem SID of Ligand>  (1) 
104126212

>  <ChEBI ID of Ligand>  (1) 


>  <ChEMBL ID of Ligand>  (1) 
CHEMBL282778

>  <DrugBank ID of Ligand>  (1) 


>  <IUPHAR_GRAC ID of Ligand>  (1) 


>  <KEGG ID of Ligand>  (1) 


>  <ZINC ID of Ligand>  (1) 
ZINC28768409

>  <Number of Protein Chains in Target (bigger than 1 implies a multichain complex)>  (1) 
1

>  <BindingDB Target Chain Sequence>  (1) 
MILNSSTEDGIKRIQDDCPKAGRHNYIFVMIPTLYSIIFVVGIFGNSLVVIVIYFYMKLKTVASVFLLNLALADLCFLLTLPLWAVYTAMEYRWPFGNYLCKIASASVSFNLYASVFLLTCLSIDRYLAIVHPMKSRLRRTMLVAKVTCIIIWLLAGLASLPAIIHRNVFFIENTNITVCAFHYESQNSTLPIGLGLTKNILGFLFPFLIILTSYTLIWKALKKAYEIQKNKPRNDDIFKIIMAIVLFFFFSWIPHQIFTFLDVLIQLGIIRDCRIADIVDTAMPITICIAYFNNCLNPLFYGFLGKKFKRYFLQLLKYIPPKAKSHSNLSTKMSTLSYRPSDNVSSSTKKPAPCFEVE

>  <PDB ID(s) of Target Chain>  (1) 
6DO1,6OS0,6OS1,6OS2

>  <UniProt (SwissProt) Recommended Name of Target Chain>  (1) 
Type-1 angiotensin II receptor

>  <UniProt (SwissProt) Entry Name of Target Chain>  (1) 
AGTR1_HUMAN

>  <UniProt (SwissProt) Primary ID of Target Chain>  (1) 
P30556

>  <UniProt (SwissProt) Secondary ID(s) of Target Chain>  (1) 
Q13725 Q8TBK4

>  <UniProt (SwissProt) Alternative ID(s) of Target Chain>  (1) 


>  <UniProt (TrEMBL) Submitted Name of Target Chain>  (1) 


>  <UniProt (TrEMBL) Entry Name of Target Chain>  (1) 


>  <UniProt (TrEMBL) Primary ID of Target Chain>  (1) 


>  <UniProt (TrEMBL) Secondary ID(s) of Target Chain>  (1) 


>  <UniProt (TrEMBL) Alternative ID(s) of Target Chain>  (1) 


$$$$
