
     RDKit          2D

 44 47  0  0  0  0  0  0  0  0999 V2000
    3.8868  -17.5867    0.0000 C   0  0  0  0  0  0  0  0  0  0  0  0
    3.7184  -18.3887    0.0000 C   0  0  0  0  0  0  0  0  0  0  0  0
    4.3281  -18.9336    0.0000 C   0  0  0  0  0  0  0  0  0  0  0  0
    5.1064  -18.6776    0.0000 C   0  0  0  0  0  0  0  0  0  0  0  0
    5.2715  -17.8717    0.0000 C   0  0  0  0  0  0  0  0  0  0  0  0
    4.6605  -17.3303    0.0000 C   0  0  0  0  0  0  0  0  0  0  0  0
    4.8216  -16.5321    0.0000 C   0  0  0  0  0  0  0  0  0  0  0  0
    5.5985  -16.2751    0.0000 C   0  0  0  0  0  0  0  0  0  0  0  0
    5.7631  -15.4755    0.0000 C   0  0  0  0  0  0  0  0  0  0  0  0
    5.1517  -14.9319    0.0000 C   0  0  0  0  0  0  0  0  0  0  0  0
    4.3731  -15.1936    0.0000 C   0  0  0  0  0  0  0  0  0  0  0  0
    4.2122  -15.9927    0.0000 C   0  0  0  0  0  0  0  0  0  0  0  0
    5.3151  -14.1312    0.0000 C   0  0  0  0  0  0  0  0  0  0  0  0
    6.0902  -13.8723    0.0000 N   0  0  0  0  0  0  0  0  0  0  0  0
    6.7504  -14.3493    0.0000 C   0  0  0  0  0  0  0  0  0  0  0  0
    7.4076  -13.8636    0.0000 N   0  0  0  0  0  0  0  0  0  0  0  0
    7.1487  -13.0884    0.0000 C   0  0  0  0  0  0  0  0  0  0  0  0
    6.3315  -13.0952    0.0000 C   0  0  0  0  0  0  0  0  0  0  0  0
    8.1868  -14.1097    0.0000 C   0  0  0  0  0  0  0  0  0  0  0  0
    8.3633  -14.9076    0.0000 C   0  0  0  0  0  0  0  0  0  0  0  0
    7.7585  -15.4578    0.0000 C   0  0  0  0  0  0  0  0  0  0  0  0
    7.9344  -16.2551    0.0000 C   0  0  0  0  0  0  0  0  0  0  0  0
    8.7144  -16.5019    0.0000 C   0  0  0  0  0  0  0  0  0  0  0  0
    9.3185  -15.9453    0.0000 C   0  0  0  0  0  0  0  0  0  0  0  0
    9.1394  -15.1501    0.0000 C   0  0  0  0  0  0  0  0  0  0  0  0
    8.8903  -17.2956    0.0000 C   0  0  0  0  0  0  0  0  0  0  0  0
    8.2866  -17.8479    0.0000 C   0  0  0  0  0  0  0  0  0  0  0  0
    8.4636  -18.6449    0.0000 C   0  0  0  0  0  0  0  0  0  0  0  0
    9.2438  -18.8907    0.0000 C   0  0  0  0  0  0  0  0  0  0  0  0
    9.8472  -18.3334    0.0000 C   0  0  0  0  0  0  0  0  0  0  0  0
    9.6671  -17.5384    0.0000 C   0  0  0  0  0  0  0  0  0  0  0  0
    7.6235  -12.4233    0.0000 C   0  0  0  0  0  0  0  0  0  0  0  0
    8.4369  -12.5020    0.0000 C   0  0  0  0  0  0  0  0  0  0  0  0
    8.9117  -11.8451    0.0000 C   0  0  0  0  0  0  0  0  0  0  0  0
    9.7251  -11.9232    0.0000 C   0  0  0  0  0  0  0  0  0  0  0  0
   10.2677  -16.9823    0.0000 C   0  0  0  0  0  0  0  0  0  0  0  0
   11.0480  -17.2253    0.0000 O   0  0  0  0  0  0  0  0  0  0  0  0
   10.0880  -16.1851    0.0000 O   0  0  0  0  0  0  0  0  0  0  0  0
    3.2744  -17.0425    0.0000 C   0  0  0  0  0  0  0  0  0  0  0  0
    3.4410  -16.2424    0.0000 O   0  0  0  0  0  0  0  0  0  0  0  0
    2.4983  -17.2982    0.0000 O   0  0  0  0  0  0  0  0  0  0  0  0
    6.7548  -15.1665    0.0000 C   0  0  0  0  0  0  0  0  0  0  0  0
    6.3394  -15.8692    0.0000 O   0  0  0  0  0  0  0  0  0  0  0  0
    6.5293  -18.7459    0.0000 Br  0  0  0  0  0  0  0  0  0  0  0  0
  1  2  2  0
  2  3  1  0
  3  4  2  0
  4  5  1  0
  5  6  2  0
  6  1  1  0
  7  8  2  0
  8  9  1  0
  9 10  2  0
 10 11  1  0
 11 12  2  0
 12  7  1  0
  6  7  1  0
 10 13  1  0
 13 14  1  0
 14 15  2  0
 15 16  1  0
 16 17  1  0
 17 18  2  0
 18 14  1  0
 16 19  1  0
 19 20  1  0
 20 21  2  0
 21 22  1  0
 22 23  2  0
 23 24  1  0
 24 25  2  0
 25 20  1  0
 26 27  2  0
 27 28  1  0
 28 29  2  0
 29 30  1  0
 30 31  2  0
 31 26  1  0
 23 26  1  0
 17 32  1  0
 32 33  1  0
 33 34  1  0
 34 35  1  0
 36 37  1  0
 36 38  2  0
 31 36  1  0
 39 40  1  0
 39 41  2  0
  1 39  1  0
 15 42  1  0
 42 43  1  0
M  CHG  2  14   1  44  -1
M  END
>  <From>  (1) 
www.bindingDB.org

>  <BindingDB Reactant_set_id>  (1) 
51192214

>  <Ligand InChI>  (1) 
InChI=1S/C36H34N2O5/c1-2-3-8-29-23-37(21-25-13-17-27(18-14-25)30-9-4-6-11-32(30)35(40)41)34(24-39)38(29)22-26-15-19-28(20-16-26)31-10-5-7-12-33(31)36(42)43/h4-7,9-20,23,39H,2-3,8,21-22,24H2,1H3,(H-,40,41,42,43)/p+1

>  <Ligand InChI Key>  (1) 
HLIUYQNDJBYFHP-UHFFFAOYSA-O

>  <BindingDB MonomerID>  (1) 
50490708

>  <BindingDB Ligand Name>  (1) 
CHEMBL2337685

>  <Target Name>  (1) 
Type-1 angiotensin II receptor

>  <Target Source Organism According to Curator or DataSource>  (1) 
Homo sapiens

>  <Ki (nM)>  (1) 


>  <IC50 (nM)>  (1) 
 501

>  <Kd (nM)>  (1) 


>  <EC50 (nM)>  (1) 


>  <kon (M-1-s-1)>  (1) 


>  <koff (s-1)>  (1) 


>  <pH>  (1) 


>  <Temp C>  (1) 


>  <Curation/DataSource>  (1) 
ChEMBL

>  <Article DOI>  (1) 
10.1016/j.ejmech.2012.12.044

>  <BindingDB Entry DOI>  (1) 
10.7270/Q2DF6V47

>  <PMID>  (1) 
23376252

>  <PubChem AID>  (1) 


>  <Patent Number>  (1) 


>  <Authors>  (1) 
Agelis, G; Resvani, A; Koukoulitsa, C; Tůmová, T; Slaninová, J; Kalavrizioti, D; Spyridaki, K; Afantitis, A; Melagraki, G; Siafaka, A; Gkini, E; Megariotis, G; Grdadolnik, SG; Papadopoulos, MG; Vlahakos, D; Maragoudakis, M; Liapakis, G; Mavromoustakos, T; Matsoukas, J

>  <Institution>  (1) 
University of Patras

>  <Link to Ligand in BindingDB>  (1) 
http://www.bindingdb.org/bind/chemsearch/marvin/MolStructure.jsp?monomerid=50490708

>  <Link to Ligand-Target Pair in BindingDB>  (1) 
http://www.bindingdb.org/jsp/dbsearch/PrimarySearch_ki.jsp?energyterm=kJ/mole&tag=r21&monomerid=50490708&enzyme=Type-1+angiotensin+II+receptor&column=ki&startPg=0&Increment=50&submit=Search

>  <Ligand HET ID in PDB>  (1) 


>  <PDB ID(s) for Ligand-Target Complex>  (1) 


>  <PubChem CID of Ligand>  (1) 
71653008

>  <PubChem SID of Ligand>  (1) 
433957973

>  <ChEBI ID of Ligand>  (1) 


>  <ChEMBL ID of Ligand>  (1) 


>  <DrugBank ID of Ligand>  (1) 


>  <IUPHAR_GRAC ID of Ligand>  (1) 


>  <KEGG ID of Ligand>  (1) 


>  <ZINC ID of Ligand>  (1) 


>  <Number of Protein Chains in Target (bigger than 1 implies a multichain complex)>  (1) 
1

>  <BindingDB Target Chain Sequence>  (1) 
MILNSSTEDGIKRIQDDCPKAGRHNYIFVMIPTLYSIIFVVGIFGNSLVVIVIYFYMKLKTVASVFLLNLALADLCFLLTLPLWAVYTAMEYRWPFGNYLCKIASASVSFNLYASVFLLTCLSIDRYLAIVHPMKSRLRRTMLVAKVTCIIIWLLAGLASLPAIIHRNVFFIENTNITVCAFHYESQNSTLPIGLGLTKNILGFLFPFLIILTSYTLIWKALKKAYEIQKNKPRNDDIFKIIMAIVLFFFFSWIPHQIFTFLDVLIQLGIIRDCRIADIVDTAMPITICIAYFNNCLNPLFYGFLGKKFKRYFLQLLKYIPPKAKSHSNLSTKMSTLSYRPSDNVSSSTKKPAPCFEVE

>  <PDB ID(s) of Target Chain>  (1) 
6DO1,6OS0,6OS1,6OS2

>  <UniProt (SwissProt) Recommended Name of Target Chain>  (1) 
Type-1 angiotensin II receptor

>  <UniProt (SwissProt) Entry Name of Target Chain>  (1) 
AGTR1_HUMAN

>  <UniProt (SwissProt) Primary ID of Target Chain>  (1) 
P30556

>  <UniProt (SwissProt) Secondary ID(s) of Target Chain>  (1) 
Q13725 Q8TBK4

>  <UniProt (SwissProt) Alternative ID(s) of Target Chain>  (1) 


>  <UniProt (TrEMBL) Submitted Name of Target Chain>  (1) 


>  <UniProt (TrEMBL) Entry Name of Target Chain>  (1) 


>  <UniProt (TrEMBL) Primary ID of Target Chain>  (1) 


>  <UniProt (TrEMBL) Secondary ID(s) of Target Chain>  (1) 


>  <UniProt (TrEMBL) Alternative ID(s) of Target Chain>  (1) 


$$$$
