
     RDKit          2D

 28 30  0  0  0  0  0  0  0  0999 V2000
   -1.2307   -3.7494    0.0000 N   0  0  0  0  0  0  0  0  0  0  0  0
   -2.5587   -3.6635    0.0000 N   0  0  0  0  0  0  0  0  0  0  0  0
    0.4121   -7.1266    0.0000 N   0  0  0  0  0  0  0  0  0  0  0  0
   -1.4425   -2.9595    0.0000 N   0  0  0  0  0  0  0  0  0  0  0  0
    1.2021   -7.3385    0.0000 C   0  0  0  0  0  0  0  0  0  0  0  0
   -1.9233   -4.1959    0.0000 C   0  0  0  0  0  0  0  0  0  0  0  0
   -2.2610   -2.9251    0.0000 C   0  0  0  0  0  0  0  0  0  0  0  0
    1.8546   -6.8233    0.0000 C   0  0  0  0  0  0  0  0  0  0  0  0
    0.2061   -6.3425    0.0000 C   0  0  0  0  0  0  0  0  0  0  0  0
   -0.0343   -7.8193    0.0000 C   0  0  0  0  0  0  0  0  0  0  0  0
   -0.4407   -3.9669    0.0000 C   0  0  0  0  0  0  0  0  0  0  0  0
    1.2364   -8.1628    0.0000 C   0  0  0  0  0  0  0  0  0  0  0  0
    0.4866   -8.4547    0.0000 C   0  0  0  0  0  0  0  0  0  0  0  0
    1.7230   -6.0162    0.0000 O   0  0  0  0  0  0  0  0  0  0  0  0
    0.7899   -5.7586    0.0000 C   0  0  0  0  0  0  0  0  0  0  0  0
   -0.5839   -6.1192    0.0000 C   0  0  0  0  0  0  0  0  0  0  0  0
   -0.2175   -4.7626    0.0000 C   0  0  0  0  0  0  0  0  0  0  0  0
    2.6160   -7.1324    0.0000 O   0  0  0  0  0  0  0  0  0  0  0  0
   -0.8013   -5.3464    0.0000 C   0  0  0  0  0  0  0  0  0  0  0  0
    0.5725   -4.9801    0.0000 C   0  0  0  0  0  0  0  0  0  0  0  0
   -1.9691   -5.0202    0.0000 C   0  0  0  0  0  0  0  0  0  0  0  0
   -2.7247   -2.2324    0.0000 C   0  0  0  0  0  0  0  0  0  0  0  0
   -2.7075   -5.3980    0.0000 C   0  0  0  0  0  0  0  0  0  0  0  0
   -2.3526   -1.4940    0.0000 C   0  0  0  0  0  0  0  0  0  0  0  0
   -2.7418   -6.2223    0.0000 C   0  0  0  0  0  0  0  0  0  0  0  0
   -2.8105   -0.8071    0.0000 C   0  0  0  0  0  0  0  0  0  0  0  0
   -3.4689   -6.6000    0.0000 C   0  0  0  0  0  0  0  0  0  0  0  0
   -2.4499   -0.0687    0.0000 C   0  0  0  0  0  0  0  0  0  0  0  0
  2  6  2  0
  3  9  1  0
  4  1  1  0
  5  3  1  0
  6  1  1  0
  7  4  2  0
  8  5  1  0
  9 15  2  0
 10  3  1  0
 11  1  1  0
 12  5  2  0
 13 10  2  0
 14  8  2  0
 15 20  1  0
 16 19  2  0
 17 11  1  0
 18  8  1  0
 19 17  1  0
 20 17  2  0
 21  6  1  0
 22  7  1  0
 23 21  1  0
 24 22  1  0
 25 23  1  0
 26 24  1  0
 27 25  1  0
 28 26  1  0
  2  7  1  0
  9 16  1  0
 13 12  1  0
M  END
>  <From>  (1) 
www.bindingDB.org

>  <BindingDB Reactant_set_id>  (1) 
50074677

>  <Ligand InChI>  (1) 
InChI=1S/C22H28N4O2/c1-3-5-9-20-23-21(10-6-4-2)26(24-20)16-17-11-13-18(14-12-17)25-15-7-8-19(25)22(27)28/h7-8,11-15H,3-6,9-10,16H2,1-2H3,(H,27,28)

>  <Ligand InChI Key>  (1) 
SBXXAKWKEXKGDW-UHFFFAOYSA-N

>  <BindingDB MonomerID>  (1) 
50046086

>  <BindingDB Ligand Name>  (1) 
CHEMBL12737::{2-Butyl-5-chloro-3-[2'-(2H-tetrazol-5-yl)-biphenyl-4-ylmethyl]-3H-imidazol-4-yl}-methanol

>  <Target Name>  (1) 
Type-1 angiotensin II receptor B

>  <Target Source Organism According to Curator or DataSource>  (1) 
Rattus

>  <Ki (nM)>  (1) 


>  <IC50 (nM)>  (1) 
 270

>  <Kd (nM)>  (1) 


>  <EC50 (nM)>  (1) 


>  <kon (M-1-s-1)>  (1) 


>  <koff (s-1)>  (1) 


>  <pH>  (1) 


>  <Temp C>  (1) 


>  <Curation/DataSource>  (1) 
ChEMBL

>  <Article DOI>  (1) 
10.1021/jm00053a013

>  <BindingDB Entry DOI>  (1) 
10.7270/Q2KH0MDW

>  <PMID>  (1) 
8421274

>  <PubChem AID>  (1) 


>  <Patent Number>  (1) 


>  <Authors>  (1) 
Bovy, PR; Reitz, DB; Collins, JT; Chamberlain, TS; Olins, GM; Corpus, VM; McMahon, EG; Palomo, MA; Koepke, JP; Smits, GJ

>  <Institution>  (1) 
Searle & Company

>  <Link to Ligand in BindingDB>  (1) 
http://www.bindingdb.org/bind/chemsearch/marvin/MolStructure.jsp?monomerid=50046086

>  <Link to Ligand-Target Pair in BindingDB>  (1) 
http://www.bindingdb.org/jsp/dbsearch/PrimarySearch_ki.jsp?energyterm=kJ/mole&tag=r21&monomerid=50046086&enzyme=Type-1+angiotensin+II+receptor+B&column=ki&startPg=0&Increment=50&submit=Search

>  <Ligand HET ID in PDB>  (1) 


>  <PDB ID(s) for Ligand-Target Complex>  (1) 


>  <PubChem CID of Ligand>  (1) 
9800025

>  <PubChem SID of Ligand>  (1) 
103976957

>  <ChEBI ID of Ligand>  (1) 


>  <ChEMBL ID of Ligand>  (1) 
CHEMBL12737

>  <DrugBank ID of Ligand>  (1) 


>  <IUPHAR_GRAC ID of Ligand>  (1) 


>  <KEGG ID of Ligand>  (1) 


>  <ZINC ID of Ligand>  (1) 
ZINC01534279

>  <Number of Protein Chains in Target (bigger than 1 implies a multichain complex)>  (1) 
1

>  <BindingDB Target Chain Sequence>  (1) 
MTLNSSTEDGIKRIQDDCPKAGRHNYIFVMIPTLYSIIFVVGIFGNSLVVIVIYFYMKLKTVASVFLLNLALADLCFLLTLPLWAVYTAMEYRWPFGNHLCKIASASVSFNLYASVFLLTCLSIDRYLAIVHPMKSRLRRTMLVAKVTCIIIWLMAGLASLPAVIYRNVYFIENTNITVCAFHYESQNSTLPIGLGLTKNILGFVFPFLIILTSYTLIWKALKKAYKIQKNTPRNDDIFRIIMAIVLFFFFSWVPHQIFTFLDVLIQLGIIRDCEIADIVDTAMPITICIAYFNNCLNPLFYGFLGKKFKKYFLQLLKYIPPTAKSHAGLSTKMSTLSYRPSDNMSSSAKKSASFFEVE

>  <PDB ID(s) of Target Chain>  (1) 


>  <UniProt (SwissProt) Recommended Name of Target Chain>  (1) 
Type-1 angiotensin II receptor B

>  <UniProt (SwissProt) Entry Name of Target Chain>  (1) 
AGTRB_RAT

>  <UniProt (SwissProt) Primary ID of Target Chain>  (1) 
P29089

>  <UniProt (SwissProt) Secondary ID(s) of Target Chain>  (1) 


>  <UniProt (SwissProt) Alternative ID(s) of Target Chain>  (1) 


>  <UniProt (TrEMBL) Submitted Name of Target Chain>  (1) 


>  <UniProt (TrEMBL) Entry Name of Target Chain>  (1) 


>  <UniProt (TrEMBL) Primary ID of Target Chain>  (1) 


>  <UniProt (TrEMBL) Secondary ID(s) of Target Chain>  (1) 


>  <UniProt (TrEMBL) Alternative ID(s) of Target Chain>  (1) 


$$$$
