
     RDKit          2D

 40 44  0  0  0  0  0  0  0  0999 V2000
    5.9803   -3.9299    0.0000 C   0  0  0  0  0  0  0  0  0  0  0  0
    5.7178   -3.1423    0.0000 N   0  0  0  0  0  0  0  0  0  0  0  0
    5.3052   -4.4175    0.0000 C   0  0  0  0  0  0  0  0  0  0  0  0
    4.8926   -3.1423    0.0000 N   0  0  0  0  0  0  0  0  0  0  0  0
    4.6426   -3.9299    0.0000 C   0  0  0  0  0  0  0  0  0  0  0  0
    8.8684   -5.6553    0.0000 C   0  0  0  0  0  0  0  0  0  0  0  0
    8.4558   -4.3800    0.0000 N   0  0  0  0  0  0  0  0  0  0  0  0
    8.2015   -5.1677    0.0000 N   0  0  0  0  0  0  0  0  0  0  0  0
    9.2810   -4.3800    0.0000 N   0  0  0  0  0  0  0  0  0  0  0  0
    9.5310   -5.1677    0.0000 N   0  0  0  0  0  0  0  0  0  0  0  0
    6.7638   -4.1800    0.0000 C   0  0  0  0  0  0  0  0  0  0  0  0
    8.8767   -6.4762    0.0000 C   0  0  0  0  0  0  0  0  0  0  0  0
    8.1640   -6.8888    0.0000 C   0  0  0  0  0  0  0  0  0  0  0  0
    6.2054   -2.4797    0.0000 C   0  0  0  0  0  0  0  0  0  0  0  0
    5.3052   -5.2427    0.0000 C   0  0  0  0  0  0  0  0  0  0  0  0
    7.4514   -6.4804    0.0000 C   0  0  0  0  0  0  0  0  0  0  0  0
    6.9180   -4.6384    0.0000 O   0  0  0  0  0  0  0  0  0  0  0  0
    7.0305   -2.5672    0.0000 C   0  0  0  0  0  0  0  0  0  0  0  0
    5.8678   -1.7295    0.0000 C   0  0  0  0  0  0  0  0  0  0  0  0
    7.4514   -5.6511    0.0000 C   0  0  0  0  0  0  0  0  0  0  0  0
    6.7430   -6.8888    0.0000 C   0  0  0  0  0  0  0  0  0  0  0  0
    6.0178   -5.6511    0.0000 C   0  0  0  0  0  0  0  0  0  0  0  0
    7.3764   -3.6299    0.0000 O   0  0  0  0  0  0  0  0  0  0  0  0
    7.1764   -1.1419    0.0000 C   0  0  0  0  0  0  0  0  0  0  0  0
    6.0261   -6.4804    0.0000 C   0  0  0  0  0  0  0  0  0  0  0  0
    6.7388   -5.2385    0.0000 C   0  0  0  0  0  0  0  0  0  0  0  0
    6.3512   -1.0627    0.0000 C   0  0  0  0  0  0  0  0  0  0  0  0
    7.5139   -1.9004    0.0000 C   0  0  0  0  0  0  0  0  0  0  0  0
    3.8549   -4.1883    0.0000 C   0  0  0  0  0  0  0  0  0  0  0  0
    9.5935   -6.8888    0.0000 C   0  0  0  0  0  0  0  0  0  0  0  0
    7.6556   -0.4751    0.0000 O   0  0  0  0  0  0  0  0  0  0  0  0
    8.1640   -7.7182    0.0000 C   0  0  0  0  0  0  0  0  0  0  0  0
    8.1640   -3.8882    0.0000 C   0  0  0  0  0  0  0  0  0  0  0  0
    8.4808   -0.5543    0.0000 C   0  0  0  0  0  0  0  0  0  0  0  0
    3.2423   -3.6299    0.0000 C   0  0  0  0  0  0  0  0  0  0  0  0
    2.4630   -3.8882    0.0000 C   0  0  0  0  0  0  0  0  0  0  0  0
    8.8767   -8.1307    0.0000 C   0  0  0  0  0  0  0  0  0  0  0  0
    9.5935   -7.7182    0.0000 C   0  0  0  0  0  0  0  0  0  0  0  0
    8.7767   -3.3381    0.0000 C   0  0  0  0  0  0  0  0  0  0  0  0
    1.8503   -3.3381    0.0000 C   0  0  0  0  0  0  0  0  0  0  0  0
  2  1  1  0
  3  1  2  0
  4  2  1  0
  5  3  1  0
  6 12  1  0
  7  8  1  0
  8  6  1  0
  9 10  1  0
 10  6  2  0
 11  1  1  0
 12 13  1  0
 13 16  1  0
 14  2  1  0
 15  3  1  0
 16 20  2  0
 17 11  2  0
 18 14  2  0
 19 14  1  0
 20 26  1  0
 21 25  2  0
 22 15  1  0
 23 11  1  0
 24 27  1  0
 25 22  1  0
 26 22  2  0
 27 19  2  0
 28 18  1  0
 29  5  1  0
 30 12  2  0
 31 24  1  0
 32 13  2  0
 33 23  1  0
 34 31  1  0
 35 29  1  0
 36 35  1  0
 37 32  1  0
 38 37  2  0
 39 33  1  0
 40 36  1  0
  4  5  2  0
 28 24  2  0
 21 16  1  0
 38 30  1  0
  9  7  2  0
M  END
>  <From>  (1) 
www.bindingDB.org

>  <BindingDB Reactant_set_id>  (1) 
50061736

>  <Ligand InChI>  (1) 
InChI=1S/C31H32N6O3/c1-4-6-11-28-27(29(31(38)40-5-2)37(34-28)23-16-18-24(39-3)19-17-23)20-21-12-14-22(15-13-21)25-9-7-8-10-26(25)30-32-35-36-33-30/h7-10,12-19H,4-6,11,20H2,1-3H3,(H,32,33,35,36)

>  <Ligand InChI Key>  (1) 
VJVIWVXXDQBLLA-UHFFFAOYSA-N

>  <BindingDB MonomerID>  (1) 
50042567

>  <BindingDB Ligand Name>  (1) 
5-Butyl-2-(4-methoxy-phenyl)-4-[2'-(1H-tetrazol-5-yl)-biphenyl-4-ylmethyl]-2H-pyrazole-3-carboxylic acid ethyl ester::CHEMBL120750

>  <Target Name>  (1) 
Type-1 angiotensin II receptor

>  <Target Source Organism According to Curator or DataSource>  (1) 
Oryctolagus cuniculus

>  <Ki (nM)>  (1) 


>  <IC50 (nM)>  (1) 
 20

>  <Kd (nM)>  (1) 


>  <EC50 (nM)>  (1) 


>  <kon (M-1-s-1)>  (1) 


>  <koff (s-1)>  (1) 


>  <pH>  (1) 


>  <Temp C>  (1) 


>  <Curation/DataSource>  (1) 
ChEMBL

>  <Article DOI>  (1) 
10.1021/jm00075a014

>  <BindingDB Entry DOI>  (1) 
10.7270/Q25Q4V5H

>  <PMID>  (1) 
8246227

>  <PubChem AID>  (1) 


>  <Patent Number>  (1) 


>  <Authors>  (1) 
Ashton, WT; Hutchins, SM; Greenlee, WJ; Doss, GA; Chang, RS; Lotti, VJ; Faust, KA; Chen, TB; Zingaro, GJ; Kivlighn, SD

>  <Institution>  (1) 
Merck Research Laboratories

>  <Link to Ligand in BindingDB>  (1) 
http://www.bindingdb.org/bind/chemsearch/marvin/MolStructure.jsp?monomerid=50042567

>  <Link to Ligand-Target Pair in BindingDB>  (1) 
http://www.bindingdb.org/jsp/dbsearch/PrimarySearch_ki.jsp?energyterm=kJ/mole&tag=r21&monomerid=50042567&enzyme=Type-1+angiotensin+II+receptor&column=ki&startPg=0&Increment=50&submit=Search

>  <Ligand HET ID in PDB>  (1) 


>  <PDB ID(s) for Ligand-Target Complex>  (1) 


>  <PubChem CID of Ligand>  (1) 
14971683

>  <PubChem SID of Ligand>  (1) 
103974163

>  <ChEBI ID of Ligand>  (1) 


>  <ChEMBL ID of Ligand>  (1) 
CHEMBL120750

>  <DrugBank ID of Ligand>  (1) 


>  <IUPHAR_GRAC ID of Ligand>  (1) 


>  <KEGG ID of Ligand>  (1) 


>  <ZINC ID of Ligand>  (1) 
ZINC27180819

>  <Number of Protein Chains in Target (bigger than 1 implies a multichain complex)>  (1) 
1

>  <BindingDB Target Chain Sequence>  (1) 
MMLNSSTEDGIKRIQDDCPKAGRHNYIFVMIPTLYSIIFVVGIFGNSLAVIVIYFYMKLKTVASVFLLNLALADLCFLLTLPLWAVYTAMEYRWPFGNYLCKIASASVSFNLYASVFLLTCLSIDRYLAIVHPMKSRLRRTMLVAKVTCIIIWLLAGLASLPAIIHRNVFFIENTNITVCAFHYESQNSTLPIGLGLTKNILGFLFPFLIILTSYTLIWKALKKAYEIQKNKPRNDDIFKIIMAIVLFFFFSWVPHQIFTFLDVLIQLGVIHDCRIADIVDTAMPITICIAYFNNCLNPLFYGFLGKKFKKYFLQLLKYIPPKAKSHSNLSTKMSTLSYRPSDNVSSSSKKPVPCFEVE

>  <PDB ID(s) of Target Chain>  (1) 
6DO1,6OS0,6OS1,6OS2

>  <UniProt (SwissProt) Recommended Name of Target Chain>  (1) 
Type-1 angiotensin II receptor

>  <UniProt (SwissProt) Entry Name of Target Chain>  (1) 
AGTR1_RABIT

>  <UniProt (SwissProt) Primary ID of Target Chain>  (1) 
P34976

>  <UniProt (SwissProt) Secondary ID(s) of Target Chain>  (1) 


>  <UniProt (SwissProt) Alternative ID(s) of Target Chain>  (1) 


>  <UniProt (TrEMBL) Submitted Name of Target Chain>  (1) 


>  <UniProt (TrEMBL) Entry Name of Target Chain>  (1) 


>  <UniProt (TrEMBL) Primary ID of Target Chain>  (1) 


>  <UniProt (TrEMBL) Secondary ID(s) of Target Chain>  (1) 


>  <UniProt (TrEMBL) Alternative ID(s) of Target Chain>  (1) 


$$$$
