
     RDKit          2D

 40 46  0  0  0  0  0  0  0  0999 V2000
    2.3584   -1.9119    0.0000 N   0  0  0  0  0  0  0  0  0  0  0  0
    2.4271   -0.5725    0.0000 N   0  0  0  0  0  0  0  0  0  0  0  0
    1.5856   -1.6200    0.0000 C   0  0  0  0  0  0  0  0  0  0  0  0
   -1.2993   -1.5627    0.0000 N   0  0  0  0  0  0  0  0  0  0  0  0
    2.8736   -1.2708    0.0000 C   0  0  0  0  0  0  0  0  0  0  0  0
    1.6314   -0.7957    0.0000 C   0  0  0  0  0  0  0  0  0  0  0  0
   -0.5609   -1.9291    0.0000 C   0  0  0  0  0  0  0  0  0  0  0  0
   -1.5054   -2.8736    0.0000 N   0  0  0  0  0  0  0  0  0  0  0  0
   -1.8832   -2.1466    0.0000 C   0  0  0  0  0  0  0  0  0  0  0  0
    5.9131   -3.1484    0.0000 C   0  0  0  0  0  0  0  0  0  0  0  0
    5.4952   -1.8890    0.0000 N   0  0  0  0  0  0  0  0  0  0  0  0
    5.2434   -2.6675    0.0000 N   0  0  0  0  0  0  0  0  0  0  0  0
    6.3195   -1.8776    0.0000 N   0  0  0  0  0  0  0  0  0  0  0  0
   -0.6869   -2.7476    0.0000 C   0  0  0  0  0  0  0  0  0  0  0  0
    6.5771   -2.6618    0.0000 N   0  0  0  0  0  0  0  0  0  0  0  0
    0.1717   -1.5513    0.0000 C   0  0  0  0  0  0  0  0  0  0  0  0
    0.8586   -1.9978    0.0000 C   0  0  0  0  0  0  0  0  0  0  0  0
    5.9245   -3.9726    0.0000 C   0  0  0  0  0  0  0  0  0  0  0  0
    0.9331   -0.3492    0.0000 C   0  0  0  0  0  0  0  0  0  0  0  0
    5.2091   -4.3848    0.0000 C   0  0  0  0  0  0  0  0  0  0  0  0
    0.2061   -0.7270    0.0000 C   0  0  0  0  0  0  0  0  0  0  0  0
    2.3584   -2.7362    0.0000 C   0  0  0  0  0  0  0  0  0  0  0  0
   -1.9405   -3.5719    0.0000 C   0  0  0  0  0  0  0  0  0  0  0  0
    4.4992   -3.9726    0.0000 C   0  0  0  0  0  0  0  0  0  0  0  0
   -2.7075   -2.1122    0.0000 C   0  0  0  0  0  0  0  0  0  0  0  0
   -2.7648   -3.5376    0.0000 C   0  0  0  0  0  0  0  0  0  0  0  0
   -3.1426   -2.8049    0.0000 C   0  0  0  0  0  0  0  0  0  0  0  0
    3.7837   -4.3848    0.0000 C   0  0  0  0  0  0  0  0  0  0  0  0
    4.4992   -3.1484    0.0000 C   0  0  0  0  0  0  0  0  0  0  0  0
    3.0739   -3.1484    0.0000 C   0  0  0  0  0  0  0  0  0  0  0  0
    3.6979   -1.3109    0.0000 C   0  0  0  0  0  0  0  0  0  0  0  0
    3.7837   -2.7362    0.0000 C   0  0  0  0  0  0  0  0  0  0  0  0
    3.0739   -3.9726    0.0000 C   0  0  0  0  0  0  0  0  0  0  0  0
    6.6344   -4.3790    0.0000 C   0  0  0  0  0  0  0  0  0  0  0  0
    5.2091   -5.2091    0.0000 C   0  0  0  0  0  0  0  0  0  0  0  0
    0.9788    0.4751    0.0000 C   0  0  0  0  0  0  0  0  0  0  0  0
    4.1444   -0.6182    0.0000 C   0  0  0  0  0  0  0  0  0  0  0  0
    5.9303   -5.6212    0.0000 C   0  0  0  0  0  0  0  0  0  0  0  0
    6.6458   -5.2091    0.0000 C   0  0  0  0  0  0  0  0  0  0  0  0
    4.9687   -0.6583    0.0000 C   0  0  0  0  0  0  0  0  0  0  0  0
  2  5  2  0
  3  1  1  0
  4  7  1  0
  5  1  1  0
  6  3  2  0
  7 16  1  0
  8 14  1  0
  9  4  2  0
 10 18  1  0
 11 12  1  0
 12 10  1  0
 13 15  1  0
 14  7  2  0
 15 10  2  0
 16 17  2  0
 17  3  1  0
 18 20  1  0
 19  6  1  0
 20 24  1  0
 21 16  1  0
 22  1  1  0
 23  8  1  0
 24 28  2  0
 25  9  1  0
 26 23  2  0
 27 25  2  0
 28 33  1  0
 29 32  2  0
 30 22  1  0
 31  5  1  0
 32 30  1  0
 33 30  2  0
 34 18  2  0
 35 20  2  0
 36 19  1  0
 37 31  1  0
 38 35  1  0
 39 38  2  0
 40 37  1  0
  6  2  1  0
 29 24  1  0
 21 19  2  0
  9  8  1  0
 26 27  1  0
 34 39  1  0
 11 13  2  0
M  END
>  <From>  (1) 
www.bindingDB.org

>  <BindingDB Reactant_set_id>  (1) 
50069226

>  <Ligand InChI>  (1) 
InChI=1S/C32H28N8/c1-3-8-30-34-31-21(2)17-24(27-20-39-16-7-6-11-29(39)33-27)18-28(31)40(30)19-22-12-14-23(15-13-22)25-9-4-5-10-26(25)32-35-37-38-36-32/h4-7,9-18,20H,3,8,19H2,1-2H3,(H,35,36,37,38)

>  <Ligand InChI Key>  (1) 
HPJCDTXAMABJSO-UHFFFAOYSA-N

>  <BindingDB MonomerID>  (1) 
50043257

>  <BindingDB Ligand Name>  (1) 
6-Imidazo[1,2-a]pyridin-2-yl-4-methyl-2-propyl-1-[2'-(1H-tetrazol-5-yl)-biphenyl-4-ylmethyl]-1H-benzoimidazole::CHEMBL424629

>  <Target Name>  (1) 
Type-1 angiotensin II receptor B

>  <Target Source Organism According to Curator or DataSource>  (1) 
Rattus

>  <Ki (nM)>  (1) 


>  <IC50 (nM)>  (1) 
 3

>  <Kd (nM)>  (1) 


>  <EC50 (nM)>  (1) 


>  <kon (M-1-s-1)>  (1) 


>  <koff (s-1)>  (1) 


>  <pH>  (1) 


>  <Temp C>  (1) 


>  <Curation/DataSource>  (1) 
ChEMBL

>  <Article DOI>  (1) 
10.1021/jm00077a007

>  <BindingDB Entry DOI>  (1) 
10.7270/Q2V98746

>  <PMID>  (1) 
8258826

>  <PubChem AID>  (1) 


>  <Patent Number>  (1) 


>  <Authors>  (1) 
Ries, UJ; Mihm, G; Narr, B; Hasselbach, KM; Wittneben, H; Entzeroth, M; van Meel, JC; Wienen, W; Hauel, NH

>  <Institution>  (1) 
Dr. Karl Thomae GmbH

>  <Link to Ligand in BindingDB>  (1) 
http://www.bindingdb.org/bind/chemsearch/marvin/MolStructure.jsp?monomerid=50043257

>  <Link to Ligand-Target Pair in BindingDB>  (1) 
http://www.bindingdb.org/jsp/dbsearch/PrimarySearch_ki.jsp?energyterm=kJ/mole&tag=r21&monomerid=50043257&enzyme=Type-1+angiotensin+II+receptor+B&column=ki&startPg=0&Increment=50&submit=Search

>  <Ligand HET ID in PDB>  (1) 


>  <PDB ID(s) for Ligand-Target Complex>  (1) 


>  <PubChem CID of Ligand>  (1) 
10052528

>  <PubChem SID of Ligand>  (1) 
103974726

>  <ChEBI ID of Ligand>  (1) 


>  <ChEMBL ID of Ligand>  (1) 
CHEMBL424629

>  <DrugBank ID of Ligand>  (1) 


>  <IUPHAR_GRAC ID of Ligand>  (1) 


>  <KEGG ID of Ligand>  (1) 


>  <ZINC ID of Ligand>  (1) 
ZINC13732081

>  <Number of Protein Chains in Target (bigger than 1 implies a multichain complex)>  (1) 
1

>  <BindingDB Target Chain Sequence>  (1) 
MTLNSSTEDGIKRIQDDCPKAGRHNYIFVMIPTLYSIIFVVGIFGNSLVVIVIYFYMKLKTVASVFLLNLALADLCFLLTLPLWAVYTAMEYRWPFGNHLCKIASASVSFNLYASVFLLTCLSIDRYLAIVHPMKSRLRRTMLVAKVTCIIIWLMAGLASLPAVIYRNVYFIENTNITVCAFHYESQNSTLPIGLGLTKNILGFVFPFLIILTSYTLIWKALKKAYKIQKNTPRNDDIFRIIMAIVLFFFFSWVPHQIFTFLDVLIQLGIIRDCEIADIVDTAMPITICIAYFNNCLNPLFYGFLGKKFKKYFLQLLKYIPPTAKSHAGLSTKMSTLSYRPSDNMSSSAKKSASFFEVE

>  <PDB ID(s) of Target Chain>  (1) 


>  <UniProt (SwissProt) Recommended Name of Target Chain>  (1) 
Type-1 angiotensin II receptor B

>  <UniProt (SwissProt) Entry Name of Target Chain>  (1) 
AGTRB_RAT

>  <UniProt (SwissProt) Primary ID of Target Chain>  (1) 
P29089

>  <UniProt (SwissProt) Secondary ID(s) of Target Chain>  (1) 


>  <UniProt (SwissProt) Alternative ID(s) of Target Chain>  (1) 


>  <UniProt (TrEMBL) Submitted Name of Target Chain>  (1) 


>  <UniProt (TrEMBL) Entry Name of Target Chain>  (1) 


>  <UniProt (TrEMBL) Primary ID of Target Chain>  (1) 


>  <UniProt (TrEMBL) Secondary ID(s) of Target Chain>  (1) 


>  <UniProt (TrEMBL) Alternative ID(s) of Target Chain>  (1) 


$$$$
