
     RDKit          2D

 28 31  0  0  0  0  0  0  0  0999 V2000
    1.5025   -5.8549    0.0000 N   0  0  0  0  0  0  0  0  0  0  0  0
    1.8293   -5.0980    0.0000 C   0  0  0  0  0  0  0  0  0  0  0  0
    5.2012   -5.0922    0.0000 C   0  0  0  0  0  0  0  0  0  0  0  0
    0.4989   -4.9775    0.0000 N   0  0  0  0  0  0  0  0  0  0  0  0
    4.3754   -5.0292    0.0000 N   0  0  0  0  0  0  0  0  0  0  0  0
    4.1862   -4.2206    0.0000 N   0  0  0  0  0  0  0  0  0  0  0  0
    0.6767   -5.7861    0.0000 C   0  0  0  0  0  0  0  0  0  0  0  0
    5.5109   -4.3352    0.0000 N   0  0  0  0  0  0  0  0  0  0  0  0
    1.2100   -4.5589    0.0000 N   0  0  0  0  0  0  0  0  0  0  0  0
    4.8915   -3.7905    0.0000 N   0  0  0  0  0  0  0  0  0  0  0  0
    5.6313   -5.7975    0.0000 C   0  0  0  0  0  0  0  0  0  0  0  0
    5.2356   -6.5201    0.0000 C   0  0  0  0  0  0  0  0  0  0  0  0
    1.9326   -6.5775    0.0000 C   0  0  0  0  0  0  0  0  0  0  0  0
    4.4098   -6.5373    0.0000 C   0  0  0  0  0  0  0  0  0  0  0  0
    2.6379   -4.9202    0.0000 O   0  0  0  0  0  0  0  0  0  0  0  0
    4.0142   -7.2598    0.0000 C   0  0  0  0  0  0  0  0  0  0  0  0
    3.9912   -5.8319    0.0000 C   0  0  0  0  0  0  0  0  0  0  0  0
    2.7583   -6.5603    0.0000 C   0  0  0  0  0  0  0  0  0  0  0  0
    3.1540   -5.8377    0.0000 C   0  0  0  0  0  0  0  0  0  0  0  0
    3.1826   -7.2656    0.0000 C   0  0  0  0  0  0  0  0  0  0  0  0
    0.1376   -6.4054    0.0000 C   0  0  0  0  0  0  0  0  0  0  0  0
    6.4570   -5.7689    0.0000 C   0  0  0  0  0  0  0  0  0  0  0  0
    5.6599   -7.2254    0.0000 C   0  0  0  0  0  0  0  0  0  0  0  0
   -0.6709   -6.2506    0.0000 C   0  0  0  0  0  0  0  0  0  0  0  0
   -1.2157   -6.8699    0.0000 C   0  0  0  0  0  0  0  0  0  0  0  0
    6.8871   -6.4857    0.0000 C   0  0  0  0  0  0  0  0  0  0  0  0
    6.4857   -7.2140    0.0000 C   0  0  0  0  0  0  0  0  0  0  0  0
   -2.0242   -6.7093    0.0000 C   0  0  0  0  0  0  0  0  0  0  0  0
  2  1  1  0
  3 11  1  0
  4  7  2  0
  5  3  1  0
  6  5  1  0
  7  1  1  0
  8  3  2  0
  9  2  1  0
 10  8  1  0
 11 12  1  0
 12 14  1  0
 13  1  1  0
 14 16  2  0
 15  2  2  0
 16 20  1  0
 17 19  2  0
 18 13  1  0
 19 18  1  0
 20 18  2  0
 21  7  1  0
 22 11  2  0
 23 12  2  0
 24 21  1  0
 25 24  1  0
 26 27  2  0
 27 23  1  0
 28 25  1  0
  4  9  1  0
 17 14  1  0
 22 26  1  0
  6 10  2  0
M  END
>  <From>  (1) 
www.bindingDB.org

>  <BindingDB Reactant_set_id>  (1) 
50060470

>  <Ligand InChI>  (1) 
InChI=1S/C20H21N7O/c1-2-3-8-18-21-24-20(28)27(18)13-14-9-11-15(12-10-14)16-6-4-5-7-17(16)19-22-25-26-23-19/h4-7,9-12H,2-3,8,13H2,1H3,(H,24,28)(H,22,23,25,26)

>  <Ligand InChI Key>  (1) 
ZPPLJKNHXCIPHL-UHFFFAOYSA-N

>  <BindingDB MonomerID>  (1) 
50044350

>  <BindingDB Ligand Name>  (1) 
5-Butyl-4-[2'-(1H-tetrazol-5-yl)-biphenyl-4-ylmethyl]-2,4-dihydro-[1,2,4]triazol-3-one::5-Butyl-4-[2'-(2H-tetrazol-5-yl)-biphenyl-4-ylmethyl]-2,4-dihydro-[1,2,4]triazol-3-one::CHEMBL69508

>  <Target Name>  (1) 
Type-1 angiotensin II receptor

>  <Target Source Organism According to Curator or DataSource>  (1) 
Oryctolagus cuniculus

>  <Ki (nM)>  (1) 


>  <IC50 (nM)>  (1) 
 60

>  <Kd (nM)>  (1) 


>  <EC50 (nM)>  (1) 


>  <kon (M-1-s-1)>  (1) 


>  <koff (s-1)>  (1) 


>  <pH>  (1) 


>  <Temp C>  (1) 


>  <Curation/DataSource>  (1) 
ChEMBL

>  <Article DOI>  (1) 
10.1021/jm00069a015

>  <BindingDB Entry DOI>  (1) 
10.7270/Q2KP817C

>  <PMID>  (1) 
8355255

>  <PubChem AID>  (1) 


>  <Patent Number>  (1) 


>  <Authors>  (1) 
Chang, LL; Ashton, WT; Flanagan, KL; Strelitz, RA; MacCoss, M; Greenlee, WJ; Chang, RS; Lotti, VJ; Faust, KA; Chen, TB

>  <Institution>  (1) 
Merck Research Laboratories

>  <Link to Ligand in BindingDB>  (1) 
http://www.bindingdb.org/bind/chemsearch/marvin/MolStructure.jsp?monomerid=50044350

>  <Link to Ligand-Target Pair in BindingDB>  (1) 
http://www.bindingdb.org/jsp/dbsearch/PrimarySearch_ki.jsp?energyterm=kJ/mole&tag=r21&monomerid=50044350&enzyme=Type-1+angiotensin+II+receptor&column=ki&startPg=0&Increment=50&submit=Search

>  <Ligand HET ID in PDB>  (1) 


>  <PDB ID(s) for Ligand-Target Complex>  (1) 


>  <PubChem CID of Ligand>  (1) 
14956775

>  <PubChem SID of Ligand>  (1) 
103975605

>  <ChEBI ID of Ligand>  (1) 


>  <ChEMBL ID of Ligand>  (1) 
CHEMBL69508

>  <DrugBank ID of Ligand>  (1) 


>  <IUPHAR_GRAC ID of Ligand>  (1) 


>  <KEGG ID of Ligand>  (1) 


>  <ZINC ID of Ligand>  (1) 
ZINC13832664

>  <Number of Protein Chains in Target (bigger than 1 implies a multichain complex)>  (1) 
1

>  <BindingDB Target Chain Sequence>  (1) 
MMLNSSTEDGIKRIQDDCPKAGRHNYIFVMIPTLYSIIFVVGIFGNSLAVIVIYFYMKLKTVASVFLLNLALADLCFLLTLPLWAVYTAMEYRWPFGNYLCKIASASVSFNLYASVFLLTCLSIDRYLAIVHPMKSRLRRTMLVAKVTCIIIWLLAGLASLPAIIHRNVFFIENTNITVCAFHYESQNSTLPIGLGLTKNILGFLFPFLIILTSYTLIWKALKKAYEIQKNKPRNDDIFKIIMAIVLFFFFSWVPHQIFTFLDVLIQLGVIHDCRIADIVDTAMPITICIAYFNNCLNPLFYGFLGKKFKKYFLQLLKYIPPKAKSHSNLSTKMSTLSYRPSDNVSSSSKKPVPCFEVE

>  <PDB ID(s) of Target Chain>  (1) 
6DO1,6OS0,6OS1,6OS2

>  <UniProt (SwissProt) Recommended Name of Target Chain>  (1) 
Type-1 angiotensin II receptor

>  <UniProt (SwissProt) Entry Name of Target Chain>  (1) 
AGTR1_RABIT

>  <UniProt (SwissProt) Primary ID of Target Chain>  (1) 
P34976

>  <UniProt (SwissProt) Secondary ID(s) of Target Chain>  (1) 


>  <UniProt (SwissProt) Alternative ID(s) of Target Chain>  (1) 


>  <UniProt (TrEMBL) Submitted Name of Target Chain>  (1) 


>  <UniProt (TrEMBL) Entry Name of Target Chain>  (1) 


>  <UniProt (TrEMBL) Primary ID of Target Chain>  (1) 


>  <UniProt (TrEMBL) Secondary ID(s) of Target Chain>  (1) 


>  <UniProt (TrEMBL) Alternative ID(s) of Target Chain>  (1) 


$$$$
