
     RDKit          2D

 35 38  0  0  0  0  0  0  0  0999 V2000
    2.3602   -1.9134    0.0000 N   0  0  0  0  0  0  0  0  0  0  0  0
    2.4290   -0.5729    0.0000 N   0  0  0  0  0  0  0  0  0  0  0  0
    2.8758   -1.2718    0.0000 C   0  0  0  0  0  0  0  0  0  0  0  0
    1.5869   -1.6212    0.0000 C   0  0  0  0  0  0  0  0  0  0  0  0
    1.6327   -0.7963    0.0000 C   0  0  0  0  0  0  0  0  0  0  0  0
    5.9291   -3.9757    0.0000 C   0  0  0  0  0  0  0  0  0  0  0  0
    5.2131   -4.3882    0.0000 C   0  0  0  0  0  0  0  0  0  0  0  0
    5.9177   -3.1508    0.0000 C   0  0  0  0  0  0  0  0  0  0  0  0
    0.8593   -1.9993    0.0000 C   0  0  0  0  0  0  0  0  0  0  0  0
    2.3602   -2.7383    0.0000 C   0  0  0  0  0  0  0  0  0  0  0  0
    4.5027   -3.9757    0.0000 C   0  0  0  0  0  0  0  0  0  0  0  0
    5.2073   -2.7497    0.0000 O   0  0  0  0  0  0  0  0  0  0  0  0
    0.9338   -0.3495    0.0000 C   0  0  0  0  0  0  0  0  0  0  0  0
    0.1719   -1.5525    0.0000 C   0  0  0  0  0  0  0  0  0  0  0  0
    3.7867   -4.3882    0.0000 C   0  0  0  0  0  0  0  0  0  0  0  0
    4.5027   -3.1508    0.0000 C   0  0  0  0  0  0  0  0  0  0  0  0
    3.0763   -3.1508    0.0000 C   0  0  0  0  0  0  0  0  0  0  0  0
    6.6337   -2.7383    0.0000 O   0  0  0  0  0  0  0  0  0  0  0  0
   -0.5614   -1.9306    0.0000 N   0  0  0  0  0  0  0  0  0  0  0  0
    3.7007   -1.3119    0.0000 C   0  0  0  0  0  0  0  0  0  0  0  0
    0.2062   -0.7276    0.0000 C   0  0  0  0  0  0  0  0  0  0  0  0
    3.0763   -3.9757    0.0000 C   0  0  0  0  0  0  0  0  0  0  0  0
    3.7867   -2.7383    0.0000 C   0  0  0  0  0  0  0  0  0  0  0  0
    6.6395   -4.3824    0.0000 C   0  0  0  0  0  0  0  0  0  0  0  0
    5.2131   -5.2131    0.0000 C   0  0  0  0  0  0  0  0  0  0  0  0
   -1.2660   -1.4838    0.0000 C   0  0  0  0  0  0  0  0  0  0  0  0
    4.1476   -0.6187    0.0000 C   0  0  0  0  0  0  0  0  0  0  0  0
   -1.9878   -1.8733    0.0000 C   0  0  0  0  0  0  0  0  0  0  0  0
    4.9725   -0.6588    0.0000 C   0  0  0  0  0  0  0  0  0  0  0  0
   -3.4200   -1.8045    0.0000 C   0  0  0  0  0  0  0  0  0  0  0  0
   -2.6924   -1.4264    0.0000 C   0  0  0  0  0  0  0  0  0  0  0  0
    5.9349   -5.6255    0.0000 C   0  0  0  0  0  0  0  0  0  0  0  0
    6.6509   -5.2131    0.0000 C   0  0  0  0  0  0  0  0  0  0  0  0
    5.4193    0.0344    0.0000 C   0  0  0  0  0  0  0  0  0  0  0  0
   -4.1188   -1.3577    0.0000 C   0  0  0  0  0  0  0  0  0  0  0  0
  2  3  2  0
  3  1  1  0
  4  1  1  0
  5  4  2  0
  6  7  2  0
  7 11  1  0
  8  6  1  0
  9  4  1  0
 10  1  1  0
 11 16  2  0
 12  8  2  0
 13  5  1  0
 14  9  2  0
 15 22  2  0
 16 23  1  0
 17 10  1  0
 18  8  1  0
 19 14  1  0
 20  3  1  0
 21 14  1  0
 22 17  1  0
 23 17  2  0
 24  6  1  0
 25  7  1  0
 26 19  1  0
 27 20  1  0
 28 26  1  0
 29 27  1  0
 30 31  1  0
 31 28  1  0
 32 25  2  0
 33 32  1  0
 34 29  1  0
 35 30  1  0
  5  2  1  0
 11 15  1  0
 21 13  2  0
 24 33  2  0
M  END
>  <From>  (1) 
www.bindingDB.org

>  <BindingDB Reactant_set_id>  (1) 
50069225

>  <Ligand InChI>  (1) 
InChI=1S/C30H35N3O2/c1-3-5-9-19-31-24-17-18-27-28(20-24)33(29(32-27)12-6-4-2)21-22-13-15-23(16-14-22)25-10-7-8-11-26(25)30(34)35/h7-8,10-11,13-18,20,31H,3-6,9,12,19,21H2,1-2H3,(H,34,35)

>  <Ligand InChI Key>  (1) 
XYNNWCDDBWKRIQ-UHFFFAOYSA-N

>  <BindingDB MonomerID>  (1) 
50043259

>  <BindingDB Ligand Name>  (1) 
4'-(2-Butyl-6-pentylamino-benzoimidazol-1-ylmethyl)-biphenyl-2-carboxylic acid::CHEMBL128340

>  <Target Name>  (1) 
Type-1 angiotensin II receptor B

>  <Target Source Organism According to Curator or DataSource>  (1) 
Rattus

>  <Ki (nM)>  (1) 


>  <IC50 (nM)>  (1) 
 390

>  <Kd (nM)>  (1) 


>  <EC50 (nM)>  (1) 


>  <kon (M-1-s-1)>  (1) 


>  <koff (s-1)>  (1) 


>  <pH>  (1) 


>  <Temp C>  (1) 


>  <Curation/DataSource>  (1) 
ChEMBL

>  <Article DOI>  (1) 
10.1021/jm00077a007

>  <BindingDB Entry DOI>  (1) 
10.7270/Q2V98746

>  <PMID>  (1) 
8258826

>  <PubChem AID>  (1) 


>  <Patent Number>  (1) 


>  <Authors>  (1) 
Ries, UJ; Mihm, G; Narr, B; Hasselbach, KM; Wittneben, H; Entzeroth, M; van Meel, JC; Wienen, W; Hauel, NH

>  <Institution>  (1) 
Dr. Karl Thomae GmbH

>  <Link to Ligand in BindingDB>  (1) 
http://www.bindingdb.org/bind/chemsearch/marvin/MolStructure.jsp?monomerid=50043259

>  <Link to Ligand-Target Pair in BindingDB>  (1) 
http://www.bindingdb.org/jsp/dbsearch/PrimarySearch_ki.jsp?energyterm=kJ/mole&tag=r21&monomerid=50043259&enzyme=Type-1+angiotensin+II+receptor+B&column=ki&startPg=0&Increment=50&submit=Search

>  <Ligand HET ID in PDB>  (1) 


>  <PDB ID(s) for Ligand-Target Complex>  (1) 


>  <PubChem CID of Ligand>  (1) 
10027681

>  <PubChem SID of Ligand>  (1) 
103974728

>  <ChEBI ID of Ligand>  (1) 


>  <ChEMBL ID of Ligand>  (1) 
CHEMBL128340

>  <DrugBank ID of Ligand>  (1) 


>  <IUPHAR_GRAC ID of Ligand>  (1) 


>  <KEGG ID of Ligand>  (1) 


>  <ZINC ID of Ligand>  (1) 
ZINC13732047

>  <Number of Protein Chains in Target (bigger than 1 implies a multichain complex)>  (1) 
1

>  <BindingDB Target Chain Sequence>  (1) 
MTLNSSTEDGIKRIQDDCPKAGRHNYIFVMIPTLYSIIFVVGIFGNSLVVIVIYFYMKLKTVASVFLLNLALADLCFLLTLPLWAVYTAMEYRWPFGNHLCKIASASVSFNLYASVFLLTCLSIDRYLAIVHPMKSRLRRTMLVAKVTCIIIWLMAGLASLPAVIYRNVYFIENTNITVCAFHYESQNSTLPIGLGLTKNILGFVFPFLIILTSYTLIWKALKKAYKIQKNTPRNDDIFRIIMAIVLFFFFSWVPHQIFTFLDVLIQLGIIRDCEIADIVDTAMPITICIAYFNNCLNPLFYGFLGKKFKKYFLQLLKYIPPTAKSHAGLSTKMSTLSYRPSDNMSSSAKKSASFFEVE

>  <PDB ID(s) of Target Chain>  (1) 


>  <UniProt (SwissProt) Recommended Name of Target Chain>  (1) 
Type-1 angiotensin II receptor B

>  <UniProt (SwissProt) Entry Name of Target Chain>  (1) 
AGTRB_RAT

>  <UniProt (SwissProt) Primary ID of Target Chain>  (1) 
P29089

>  <UniProt (SwissProt) Secondary ID(s) of Target Chain>  (1) 


>  <UniProt (SwissProt) Alternative ID(s) of Target Chain>  (1) 


>  <UniProt (TrEMBL) Submitted Name of Target Chain>  (1) 


>  <UniProt (TrEMBL) Entry Name of Target Chain>  (1) 


>  <UniProt (TrEMBL) Primary ID of Target Chain>  (1) 


>  <UniProt (TrEMBL) Secondary ID(s) of Target Chain>  (1) 


>  <UniProt (TrEMBL) Alternative ID(s) of Target Chain>  (1) 


$$$$
