
     RDKit          2D

 49 54  0  0  0  0  0  0  0  0999 V2000
    9.6656   -7.2992    0.0000 S   0  0  0  0  0  0  0  0  0  0  0  0
    6.0535   -6.2410    0.0000 N   0  0  0  0  0  0  0  0  0  0  0  0
    6.6909   -5.7243    0.0000 C   0  0  0  0  0  0  0  0  0  0  0  0
    6.4035   -4.9536    0.0000 C   0  0  0  0  0  0  0  0  0  0  0  0
    5.5786   -4.9911    0.0000 N   0  0  0  0  0  0  0  0  0  0  0  0
   10.4905   -7.3034    0.0000 N   0  0  0  0  0  0  0  0  0  0  0  0
    5.3619   -5.7910    0.0000 C   0  0  0  0  0  0  0  0  0  0  0  0
    9.7114   -8.1158    0.0000 C   0  0  0  0  0  0  0  0  0  0  0  0
   10.9112   -6.5909    0.0000 C   0  0  0  0  0  0  0  0  0  0  0  0
    7.4908   -5.9410    0.0000 C   0  0  0  0  0  0  0  0  0  0  0  0
    5.7493   -2.0540    0.0000 N   0  0  0  0  0  0  0  0  0  0  0  0
    9.0157   -8.5657    0.0000 C   0  0  0  0  0  0  0  0  0  0  0  0
    6.8534   -4.2537    0.0000 C   0  0  0  0  0  0  0  0  0  0  0  0
    5.3786   -1.3165    0.0000 C   0  0  0  0  0  0  0  0  0  0  0  0
    6.4785   -3.5288    0.0000 N   0  0  0  0  0  0  0  0  0  0  0  0
    6.0910   -7.0659    0.0000 C   0  0  0  0  0  0  0  0  0  0  0  0
    8.8407   -7.2909    0.0000 O   0  0  0  0  0  0  0  0  0  0  0  0
    9.6614   -6.4660    0.0000 O   0  0  0  0  0  0  0  0  0  0  0  0
    8.2907   -8.1908    0.0000 C   0  0  0  0  0  0  0  0  0  0  0  0
    5.8285   -0.6291    0.0000 N   0  0  0  0  0  0  0  0  0  0  0  0
   10.5030   -5.8785    0.0000 O   0  0  0  0  0  0  0  0  0  0  0  0
    6.5659   -2.1040    0.0000 C   0  0  0  0  0  0  0  0  0  0  0  0
    5.2911   -2.7414    0.0000 C   0  0  0  0  0  0  0  0  0  0  0  0
   11.7362   -6.6034    0.0000 C   0  0  0  0  0  0  0  0  0  0  0  0
    7.4866   -6.4910    0.0000 O   0  0  0  0  0  0  0  0  0  0  0  0
    7.5908   -8.6407    0.0000 C   0  0  0  0  0  0  0  0  0  0  0  0
    8.2491   -7.3659    0.0000 C   0  0  0  0  0  0  0  0  0  0  0  0
    6.9409   -2.8414    0.0000 C   0  0  0  0  0  0  0  0  0  0  0  0
    5.6619   -3.4871    0.0000 C   0  0  0  0  0  0  0  0  0  0  0  0
    6.8242   -7.4408    0.0000 C   0  0  0  0  0  0  0  0  0  0  0  0
    8.0783   -5.3619    0.0000 O   0  0  0  0  0  0  0  0  0  0  0  0
    4.5912   -6.0785    0.0000 C   0  0  0  0  0  0  0  0  0  0  0  0
    6.8617   -8.2658    0.0000 C   0  0  0  0  0  0  0  0  0  0  0  0
    7.5158   -6.9909    0.0000 C   0  0  0  0  0  0  0  0  0  0  0  0
   10.4405   -8.4907    0.0000 C   0  0  0  0  0  0  0  0  0  0  0  0
    9.0615   -9.3906    0.0000 C   0  0  0  0  0  0  0  0  0  0  0  0
    4.5537   -1.2666    0.0000 C   0  0  0  0  0  0  0  0  0  0  0  0
    5.4661    0.1083    0.0000 C   0  0  0  0  0  0  0  0  0  0  0  0
   12.1361   -7.3242    0.0000 C   0  0  0  0  0  0  0  0  0  0  0  0
   12.1486   -5.8910    0.0000 C   0  0  0  0  0  0  0  0  0  0  0  0
    3.9537   -5.5619    0.0000 C   0  0  0  0  0  0  0  0  0  0  0  0
    9.7906   -9.7656    0.0000 C   0  0  0  0  0  0  0  0  0  0  0  0
   10.4863   -9.3239    0.0000 C   0  0  0  0  0  0  0  0  0  0  0  0
    4.1870   -0.5374    0.0000 C   0  0  0  0  0  0  0  0  0  0  0  0
    4.6412    0.1583    0.0000 C   0  0  0  0  0  0  0  0  0  0  0  0
    3.1788   -5.8535    0.0000 C   0  0  0  0  0  0  0  0  0  0  0  0
   12.9735   -5.8993    0.0000 C   0  0  0  0  0  0  0  0  0  0  0  0
   12.9610   -7.3284    0.0000 C   0  0  0  0  0  0  0  0  0  0  0  0
   13.3777   -6.6159    0.0000 C   0  0  0  0  0  0  0  0  0  0  0  0
  2 16  1  0
  3  2  1  0
  4  3  2  0
  5  7  2  0
  6  1  1  0
  7  2  1  0
  8  1  1  0
  9  6  1  0
 10  3  1  0
 11 23  1  0
 12  8  1  0
 13  4  1  0
 14 11  1  0
 15 13  1  0
 16 30  1  0
 17  1  2  0
 18  1  2  0
 19 12  1  0
 20 14  2  0
 21  9  2  0
 22 28  1  0
 23 29  1  0
 24  9  1  0
 25 10  2  0
 26 19  2  0
 27 19  1  0
 28 15  1  0
 29 15  1  0
 30 34  1  0
 31 10  1  0
 32  7  1  0
 33 26  1  0
 34 27  2  0
 35  8  2  0
 36 12  2  0
 37 14  1  0
 38 20  1  0
 39 24  2  0
 40 24  1  0
 41 32  1  0
 42 43  2  0
 43 35  1  0
 44 37  2  0
 45 44  1  0
 46 41  1  0
 47 40  2  0
 48 39  1  0
 49 47  1  0
 42 36  1  0
 33 30  2  0
 49 48  2  0
  5  4  1  0
 11 22  1  0
 45 38  2  0
M  END
>  <From>  (1) 
www.bindingDB.org

>  <BindingDB Reactant_set_id>  (1) 
50469021

>  <Ligand InChI>  (1) 
InChI=1S/C37H38N6O5S/c1-2-10-34-39-31(26-41-21-23-42(24-22-41)33-15-8-9-20-38-33)35(37(45)46)43(34)25-27-16-18-28(19-17-27)30-13-6-7-14-32(30)49(47,48)40-36(44)29-11-4-3-5-12-29/h3-9,11-20H,2,10,21-26H2,1H3,(H,40,44)(H,45,46)

>  <Ligand InChI Key>  (1) 
HNBIZXAJAFZXPU-UHFFFAOYSA-N

>  <BindingDB MonomerID>  (1) 
50283173

>  <BindingDB Ligand Name>  (1) 
3-(2'-Benzoylsulfamoyl-biphenyl-4-ylmethyl)-2-propyl-5-(4-pyridin-2-yl-piperazin-1-ylmethyl)-3H-imidazole-4-carboxylic acid::CHEMBL72819

>  <Target Name>  (1) 
Type-1 angiotensin II receptor

>  <Target Source Organism According to Curator or DataSource>  (1) 
Homo sapiens

>  <Ki (nM)>  (1) 


>  <IC50 (nM)>  (1) 
 6

>  <Kd (nM)>  (1) 


>  <EC50 (nM)>  (1) 


>  <kon (M-1-s-1)>  (1) 


>  <koff (s-1)>  (1) 


>  <pH>  (1) 


>  <Temp C>  (1) 


>  <Curation/DataSource>  (1) 
ChEMBL

>  <Article DOI>  (1) 
10.1016/S0960-894X(00)80076-1

>  <BindingDB Entry DOI>  (1) 
10.7270/Q2JQ110M

>  <PMID>  (1) 


>  <PubChem AID>  (1) 


>  <Patent Number>  (1) 


>  <Authors>  (1) 
Olson, RE; Liu, J; Lalka, GK; VanAtten, MK; Wexler, RR; Chiu, AT; Nguyen, TT; McCall, DE; Wong, PC; Timmermans, PB

>  <Institution>  (1) 
TBA

>  <Link to Ligand in BindingDB>  (1) 
http://www.bindingdb.org/bind/chemsearch/marvin/MolStructure.jsp?monomerid=50283173

>  <Link to Ligand-Target Pair in BindingDB>  (1) 
http://www.bindingdb.org/jsp/dbsearch/PrimarySearch_ki.jsp?energyterm=kJ/mole&tag=r21&monomerid=50283173&enzyme=Type-1+angiotensin+II+receptor&column=ki&startPg=0&Increment=50&submit=Search

>  <Ligand HET ID in PDB>  (1) 


>  <PDB ID(s) for Ligand-Target Complex>  (1) 


>  <PubChem CID of Ligand>  (1) 
15222103

>  <PubChem SID of Ligand>  (1) 
104124847

>  <ChEBI ID of Ligand>  (1) 


>  <ChEMBL ID of Ligand>  (1) 
CHEMBL72819

>  <DrugBank ID of Ligand>  (1) 


>  <IUPHAR_GRAC ID of Ligand>  (1) 


>  <KEGG ID of Ligand>  (1) 


>  <ZINC ID of Ligand>  (1) 
ZINC26377022

>  <Number of Protein Chains in Target (bigger than 1 implies a multichain complex)>  (1) 
1

>  <BindingDB Target Chain Sequence>  (1) 
MILNSSTEDGIKRIQDDCPKAGRHNYIFVMIPTLYSIIFVVGIFGNSLVVIVIYFYMKLKTVASVFLLNLALADLCFLLTLPLWAVYTAMEYRWPFGNYLCKIASASVSFNLYASVFLLTCLSIDRYLAIVHPMKSRLRRTMLVAKVTCIIIWLLAGLASLPAIIHRNVFFIENTNITVCAFHYESQNSTLPIGLGLTKNILGFLFPFLIILTSYTLIWKALKKAYEIQKNKPRNDDIFKIIMAIVLFFFFSWIPHQIFTFLDVLIQLGIIRDCRIADIVDTAMPITICIAYFNNCLNPLFYGFLGKKFKRYFLQLLKYIPPKAKSHSNLSTKMSTLSYRPSDNVSSSTKKPAPCFEVE

>  <PDB ID(s) of Target Chain>  (1) 
6DO1,6OS0,6OS1,6OS2

>  <UniProt (SwissProt) Recommended Name of Target Chain>  (1) 
Type-1 angiotensin II receptor

>  <UniProt (SwissProt) Entry Name of Target Chain>  (1) 
AGTR1_HUMAN

>  <UniProt (SwissProt) Primary ID of Target Chain>  (1) 
P30556

>  <UniProt (SwissProt) Secondary ID(s) of Target Chain>  (1) 
Q13725 Q8TBK4

>  <UniProt (SwissProt) Alternative ID(s) of Target Chain>  (1) 


>  <UniProt (TrEMBL) Submitted Name of Target Chain>  (1) 


>  <UniProt (TrEMBL) Entry Name of Target Chain>  (1) 


>  <UniProt (TrEMBL) Primary ID of Target Chain>  (1) 


>  <UniProt (TrEMBL) Secondary ID(s) of Target Chain>  (1) 


>  <UniProt (TrEMBL) Alternative ID(s) of Target Chain>  (1) 


$$$$
