
     RDKit          2D

 41 45  0  0  0  0  0  0  0  0999 V2000
   -0.1317   -3.7179    0.0000 N   0  0  0  0  0  0  0  0  0  0  0  0
    0.5385   -4.1991    0.0000 C   0  0  0  0  0  0  0  0  0  0  0  0
    0.2807   -4.9897    0.0000 C   0  0  0  0  0  0  0  0  0  0  0  0
   -0.8020   -4.1991    0.0000 N   0  0  0  0  0  0  0  0  0  0  0  0
   -0.3437   -2.9102    0.0000 C   0  0  0  0  0  0  0  0  0  0  0  0
   -0.5442   -4.9897    0.0000 C   0  0  0  0  0  0  0  0  0  0  0  0
    4.1648   -4.1476    0.0000 C   0  0  0  0  0  0  0  0  0  0  0  0
    3.7695   -2.8758    0.0000 N   0  0  0  0  0  0  0  0  0  0  0  0
    3.5059   -3.6606    0.0000 N   0  0  0  0  0  0  0  0  0  0  0  0
    4.5886   -2.8758    0.0000 N   0  0  0  0  0  0  0  0  0  0  0  0
    0.2464   -2.3259    0.0000 C   0  0  0  0  0  0  0  0  0  0  0  0
   -1.1343   -2.6982    0.0000 C   0  0  0  0  0  0  0  0  0  0  0  0
    4.8350   -3.6664    0.0000 N   0  0  0  0  0  0  0  0  0  0  0  0
    1.3233   -3.9527    0.0000 C   0  0  0  0  0  0  0  0  0  0  0  0
    4.4569   -4.9323    0.0000 C   0  0  0  0  0  0  0  0  0  0  0  0
    4.0559   -5.6427    0.0000 C   0  0  0  0  0  0  0  0  0  0  0  0
    0.0230   -1.5295    0.0000 C   0  0  0  0  0  0  0  0  0  0  0  0
   -1.3519   -1.9076    0.0000 C   0  0  0  0  0  0  0  0  0  0  0  0
    0.7620   -5.6599    0.0000 C   0  0  0  0  0  0  0  0  0  0  0  0
   -0.7676   -1.3119    0.0000 C   0  0  0  0  0  0  0  0  0  0  0  0
    3.2309   -5.6541    0.0000 C   0  0  0  0  0  0  0  0  0  0  0  0
    2.1196   -4.3480    0.0000 O   0  0  0  0  0  0  0  0  0  0  0  0
    1.0026   -2.1998    0.0000 Cl  0  0  0  0  0  0  0  0  0  0  0  0
   -1.7472   -3.2711    0.0000 Cl  0  0  0  0  0  0  0  0  0  0  0  0
    2.8071   -4.9381    0.0000 C   0  0  0  0  0  0  0  0  0  0  0  0
    2.8243   -6.3645    0.0000 C   0  0  0  0  0  0  0  0  0  0  0  0
    1.5869   -5.6541    0.0000 C   0  0  0  0  0  0  0  0  0  0  0  0
    1.5009   -3.1450    0.0000 O   0  0  0  0  0  0  0  0  0  0  0  0
   -0.9910   -0.5042    0.0000 Cl  0  0  0  0  0  0  0  0  0  0  0  0
    1.9993   -6.3645    0.0000 C   0  0  0  0  0  0  0  0  0  0  0  0
    1.9936   -4.9495    0.0000 C   0  0  0  0  0  0  0  0  0  0  0  0
   -1.0254   -5.6599    0.0000 C   0  0  0  0  0  0  0  0  0  0  0  0
    5.2818   -4.9209    0.0000 C   0  0  0  0  0  0  0  0  0  0  0  0
    4.4683   -6.3645    0.0000 C   0  0  0  0  0  0  0  0  0  0  0  0
    2.2915   -2.9216    0.0000 C   0  0  0  0  0  0  0  0  0  0  0  0
   -1.8503   -5.6541    0.0000 C   0  0  0  0  0  0  0  0  0  0  0  0
   -2.2799   -6.3588    0.0000 C   0  0  0  0  0  0  0  0  0  0  0  0
    5.6943   -5.6427    0.0000 C   0  0  0  0  0  0  0  0  0  0  0  0
    5.2932   -6.3588    0.0000 C   0  0  0  0  0  0  0  0  0  0  0  0
    2.5091   -2.1196    0.0000 C   0  0  0  0  0  0  0  0  0  0  0  0
   -3.1049   -6.3474    0.0000 C   0  0  0  0  0  0  0  0  0  0  0  0
  2  1  1  0
  3  2  2  0
  4  1  1  0
  5  1  1  0
  6  4  2  0
  7 15  1  0
  8  9  1  0
  9  7  1  0
 10 13  1  0
 11  5  2  0
 12  5  1  0
 13  7  2  0
 14  2  1  0
 15 16  1  0
 16 21  1  0
 17 11  1  0
 18 12  2  0
 19  3  1  0
 20 18  1  0
 21 25  2  0
 22 14  2  0
 23 11  1  0
 24 12  1  0
 25 31  1  0
 26 30  2  0
 27 19  1  0
 28 14  1  0
 29 20  1  0
 30 27  1  0
 31 27  2  0
 32  6  1  0
 33 15  2  0
 34 16  2  0
 35 28  1  0
 36 32  1  0
 37 36  1  0
 38 39  2  0
 39 34  1  0
 40 35  1  0
 41 37  1  0
  3  6  1  0
 17 20  2  0
 26 21  1  0
 38 33  1  0
  8 10  2  0
M  END
>  <From>  (1) 
www.bindingDB.org

>  <BindingDB Reactant_set_id>  (1) 
50061741

>  <Ligand InChI>  (1) 
InChI=1S/C30H27Cl3N6O2/c1-3-5-10-26-23(27(30(40)41-4-2)39(36-26)28-24(32)16-20(31)17-25(28)33)15-18-11-13-19(14-12-18)21-8-6-7-9-22(21)29-34-37-38-35-29/h6-9,11-14,16-17H,3-5,10,15H2,1-2H3,(H,34,35,37,38)

>  <Ligand InChI Key>  (1) 
RHSCVUDKMZMOPM-UHFFFAOYSA-N

>  <BindingDB MonomerID>  (1) 
50042528

>  <BindingDB Ligand Name>  (1) 
5-Butyl-4-[2'-(1H-tetrazol-5-yl)-biphenyl-4-ylmethyl]-2-(2,4,6-trichloro-phenyl)-2H-pyrazole-3-carboxylic acid ethyl ester::CHEMBL328598

>  <Target Name>  (1) 
Type-1 angiotensin II receptor

>  <Target Source Organism According to Curator or DataSource>  (1) 
Oryctolagus cuniculus

>  <Ki (nM)>  (1) 


>  <IC50 (nM)>  (1) 
 37

>  <Kd (nM)>  (1) 


>  <EC50 (nM)>  (1) 


>  <kon (M-1-s-1)>  (1) 


>  <koff (s-1)>  (1) 


>  <pH>  (1) 


>  <Temp C>  (1) 


>  <Curation/DataSource>  (1) 
ChEMBL

>  <Article DOI>  (1) 
10.1021/jm00075a014

>  <BindingDB Entry DOI>  (1) 
10.7270/Q25Q4V5H

>  <PMID>  (1) 
8246227

>  <PubChem AID>  (1) 


>  <Patent Number>  (1) 


>  <Authors>  (1) 
Ashton, WT; Hutchins, SM; Greenlee, WJ; Doss, GA; Chang, RS; Lotti, VJ; Faust, KA; Chen, TB; Zingaro, GJ; Kivlighn, SD

>  <Institution>  (1) 
Merck Research Laboratories

>  <Link to Ligand in BindingDB>  (1) 
http://www.bindingdb.org/bind/chemsearch/marvin/MolStructure.jsp?monomerid=50042528

>  <Link to Ligand-Target Pair in BindingDB>  (1) 
http://www.bindingdb.org/jsp/dbsearch/PrimarySearch_ki.jsp?energyterm=kJ/mole&tag=r21&monomerid=50042528&enzyme=Type-1+angiotensin+II+receptor&column=ki&startPg=0&Increment=50&submit=Search

>  <Ligand HET ID in PDB>  (1) 


>  <PDB ID(s) for Ligand-Target Complex>  (1) 


>  <PubChem CID of Ligand>  (1) 
14971679

>  <PubChem SID of Ligand>  (1) 
103974124

>  <ChEBI ID of Ligand>  (1) 


>  <ChEMBL ID of Ligand>  (1) 
CHEMBL328598

>  <DrugBank ID of Ligand>  (1) 


>  <IUPHAR_GRAC ID of Ligand>  (1) 


>  <KEGG ID of Ligand>  (1) 


>  <ZINC ID of Ligand>  (1) 
ZINC26663864

>  <Number of Protein Chains in Target (bigger than 1 implies a multichain complex)>  (1) 
1

>  <BindingDB Target Chain Sequence>  (1) 
MMLNSSTEDGIKRIQDDCPKAGRHNYIFVMIPTLYSIIFVVGIFGNSLAVIVIYFYMKLKTVASVFLLNLALADLCFLLTLPLWAVYTAMEYRWPFGNYLCKIASASVSFNLYASVFLLTCLSIDRYLAIVHPMKSRLRRTMLVAKVTCIIIWLLAGLASLPAIIHRNVFFIENTNITVCAFHYESQNSTLPIGLGLTKNILGFLFPFLIILTSYTLIWKALKKAYEIQKNKPRNDDIFKIIMAIVLFFFFSWVPHQIFTFLDVLIQLGVIHDCRIADIVDTAMPITICIAYFNNCLNPLFYGFLGKKFKKYFLQLLKYIPPKAKSHSNLSTKMSTLSYRPSDNVSSSSKKPVPCFEVE

>  <PDB ID(s) of Target Chain>  (1) 
6DO1,6OS0,6OS1,6OS2

>  <UniProt (SwissProt) Recommended Name of Target Chain>  (1) 
Type-1 angiotensin II receptor

>  <UniProt (SwissProt) Entry Name of Target Chain>  (1) 
AGTR1_RABIT

>  <UniProt (SwissProt) Primary ID of Target Chain>  (1) 
P34976

>  <UniProt (SwissProt) Secondary ID(s) of Target Chain>  (1) 


>  <UniProt (SwissProt) Alternative ID(s) of Target Chain>  (1) 


>  <UniProt (TrEMBL) Submitted Name of Target Chain>  (1) 


>  <UniProt (TrEMBL) Entry Name of Target Chain>  (1) 


>  <UniProt (TrEMBL) Primary ID of Target Chain>  (1) 


>  <UniProt (TrEMBL) Secondary ID(s) of Target Chain>  (1) 


>  <UniProt (TrEMBL) Alternative ID(s) of Target Chain>  (1) 


$$$$
