
     RDKit          2D

 36 40  0  0  0  0  0  0  0  0999 V2000
    0.5558   -6.2962    0.0000 N   0  0  0  0  0  0  0  0  0  0  0  0
    0.8479   -7.6025    0.0000 N   0  0  0  0  0  0  0  0  0  0  0  0
    1.1745   -6.8405    0.0000 C   0  0  0  0  0  0  0  0  0  0  0  0
   -0.1547   -6.7201    0.0000 N   0  0  0  0  0  0  0  0  0  0  0  0
    0.0230   -7.5279    0.0000 C   0  0  0  0  0  0  0  0  0  0  0  0
    4.5432   -6.8290    0.0000 C   0  0  0  0  0  0  0  0  0  0  0  0
    3.7182   -6.7603    0.0000 N   0  0  0  0  0  0  0  0  0  0  0  0
    3.5291   -5.9639    0.0000 N   0  0  0  0  0  0  0  0  0  0  0  0
    4.8525   -6.0728    0.0000 N   0  0  0  0  0  0  0  0  0  0  0  0
    0.6245   -5.4713    0.0000 C   0  0  0  0  0  0  0  0  0  0  0  0
    4.2338   -5.5342    0.0000 N   0  0  0  0  0  0  0  0  0  0  0  0
    4.9728   -7.5337    0.0000 C   0  0  0  0  0  0  0  0  0  0  0  0
    4.5775   -8.2556    0.0000 C   0  0  0  0  0  0  0  0  0  0  0  0
    1.2776   -8.3071    0.0000 C   0  0  0  0  0  0  0  0  0  0  0  0
    1.9823   -6.6572    0.0000 O   0  0  0  0  0  0  0  0  0  0  0  0
    3.7526   -8.2728    0.0000 C   0  0  0  0  0  0  0  0  0  0  0  0
   -0.0458   -5.0072    0.0000 C   0  0  0  0  0  0  0  0  0  0  0  0
    3.3573   -8.9946    0.0000 C   0  0  0  0  0  0  0  0  0  0  0  0
    3.3343   -7.5681    0.0000 C   0  0  0  0  0  0  0  0  0  0  0  0
    2.1026   -8.3014    0.0000 C   0  0  0  0  0  0  0  0  0  0  0  0
   -0.7906   -5.3510    0.0000 Cl  0  0  0  0  0  0  0  0  0  0  0  0
   -0.5156   -8.1467    0.0000 C   0  0  0  0  0  0  0  0  0  0  0  0
    2.4979   -7.5795    0.0000 C   0  0  0  0  0  0  0  0  0  0  0  0
    2.5265   -9.0060    0.0000 C   0  0  0  0  0  0  0  0  0  0  0  0
    1.3807   -5.1275    0.0000 C   0  0  0  0  0  0  0  0  0  0  0  0
    5.7978   -7.5165    0.0000 C   0  0  0  0  0  0  0  0  0  0  0  0
    5.0014   -8.9602    0.0000 C   0  0  0  0  0  0  0  0  0  0  0  0
    0.0230   -4.1822    0.0000 C   0  0  0  0  0  0  0  0  0  0  0  0
   -1.3234   -7.9806    0.0000 C   0  0  0  0  0  0  0  0  0  0  0  0
   -2.6754   -8.4446    0.0000 C   0  0  0  0  0  0  0  0  0  0  0  0
   -1.8676   -8.5993    0.0000 C   0  0  0  0  0  0  0  0  0  0  0  0
    1.4495   -4.3140    0.0000 C   0  0  0  0  0  0  0  0  0  0  0  0
    5.8264   -8.9431    0.0000 C   0  0  0  0  0  0  0  0  0  0  0  0
    6.2275   -8.2212    0.0000 C   0  0  0  0  0  0  0  0  0  0  0  0
   -3.2254   -9.0634    0.0000 C   0  0  0  0  0  0  0  0  0  0  0  0
    0.7792   -3.8385    0.0000 C   0  0  0  0  0  0  0  0  0  0  0  0
  2  3  1  0
  3  1  1  0
  4  1  1  0
  5  4  2  0
  6 12  1  0
  7  6  1  0
  8  7  1  0
  9  6  2  0
 10  1  1  0
 11  9  1  0
 12 13  1  0
 13 16  1  0
 14  2  1  0
 15  3  2  0
 16 18  2  0
 17 10  2  0
 18 24  1  0
 19 23  2  0
 20 14  1  0
 21 17  1  0
 22  5  1  0
 23 20  1  0
 24 20  2  0
 25 10  1  0
 26 12  2  0
 27 13  2  0
 28 17  1  0
 29 22  1  0
 30 31  1  0
 31 29  1  0
 32 25  2  0
 33 27  1  0
 34 33  2  0
 35 30  1  0
 36 32  1  0
  2  5  1  0
 36 28  2  0
 19 16  1  0
 26 34  1  0
  8 11  2  0
M  END
>  <From>  (1) 
www.bindingDB.org

>  <BindingDB Reactant_set_id>  (1) 
50060555

>  <Ligand InChI>  (1) 
InChI=1S/C27H26ClN7O/c1-2-3-4-13-25-31-35(24-12-8-7-11-23(24)28)27(36)34(25)18-19-14-16-20(17-15-19)21-9-5-6-10-22(21)26-29-32-33-30-26/h5-12,14-17H,2-4,13,18H2,1H3,(H,29,30,32,33)

>  <Ligand InChI Key>  (1) 
KZTAUKJEFUHABC-UHFFFAOYSA-N

>  <BindingDB MonomerID>  (1) 
50044486

>  <BindingDB Ligand Name>  (1) 
2-(2-Chloro-phenyl)-5-pentyl-4-[2'-(2H-tetrazol-5-yl)-biphenyl-4-ylmethyl]-2,4-dihydro-[1,2,4]triazol-3-one::CHEMBL316052

>  <Target Name>  (1) 
Type-1 angiotensin II receptor

>  <Target Source Organism According to Curator or DataSource>  (1) 
Oryctolagus cuniculus

>  <Ki (nM)>  (1) 


>  <IC50 (nM)>  (1) 
 5.7

>  <Kd (nM)>  (1) 


>  <EC50 (nM)>  (1) 


>  <kon (M-1-s-1)>  (1) 


>  <koff (s-1)>  (1) 


>  <pH>  (1) 


>  <Temp C>  (1) 


>  <Curation/DataSource>  (1) 
ChEMBL

>  <Article DOI>  (1) 
10.1021/jm00069a015

>  <BindingDB Entry DOI>  (1) 
10.7270/Q2KP817C

>  <PMID>  (1) 
8355255

>  <PubChem AID>  (1) 


>  <Patent Number>  (1) 


>  <Authors>  (1) 
Chang, LL; Ashton, WT; Flanagan, KL; Strelitz, RA; MacCoss, M; Greenlee, WJ; Chang, RS; Lotti, VJ; Faust, KA; Chen, TB

>  <Institution>  (1) 
Merck Research Laboratories

>  <Link to Ligand in BindingDB>  (1) 
http://www.bindingdb.org/bind/chemsearch/marvin/MolStructure.jsp?monomerid=50044486

>  <Link to Ligand-Target Pair in BindingDB>  (1) 
http://www.bindingdb.org/jsp/dbsearch/PrimarySearch_ki.jsp?energyterm=kJ/mole&tag=r21&monomerid=50044486&enzyme=Type-1+angiotensin+II+receptor&column=ki&startPg=0&Increment=50&submit=Search

>  <Ligand HET ID in PDB>  (1) 


>  <PDB ID(s) for Ligand-Target Complex>  (1) 


>  <PubChem CID of Ligand>  (1) 
14956769

>  <PubChem SID of Ligand>  (1) 
103975724

>  <ChEBI ID of Ligand>  (1) 


>  <ChEMBL ID of Ligand>  (1) 
CHEMBL316052

>  <DrugBank ID of Ligand>  (1) 


>  <IUPHAR_GRAC ID of Ligand>  (1) 


>  <KEGG ID of Ligand>  (1) 


>  <ZINC ID of Ligand>  (1) 
ZINC13832658

>  <Number of Protein Chains in Target (bigger than 1 implies a multichain complex)>  (1) 
1

>  <BindingDB Target Chain Sequence>  (1) 
MMLNSSTEDGIKRIQDDCPKAGRHNYIFVMIPTLYSIIFVVGIFGNSLAVIVIYFYMKLKTVASVFLLNLALADLCFLLTLPLWAVYTAMEYRWPFGNYLCKIASASVSFNLYASVFLLTCLSIDRYLAIVHPMKSRLRRTMLVAKVTCIIIWLLAGLASLPAIIHRNVFFIENTNITVCAFHYESQNSTLPIGLGLTKNILGFLFPFLIILTSYTLIWKALKKAYEIQKNKPRNDDIFKIIMAIVLFFFFSWVPHQIFTFLDVLIQLGVIHDCRIADIVDTAMPITICIAYFNNCLNPLFYGFLGKKFKKYFLQLLKYIPPKAKSHSNLSTKMSTLSYRPSDNVSSSSKKPVPCFEVE

>  <PDB ID(s) of Target Chain>  (1) 
6DO1,6OS0,6OS1,6OS2

>  <UniProt (SwissProt) Recommended Name of Target Chain>  (1) 
Type-1 angiotensin II receptor

>  <UniProt (SwissProt) Entry Name of Target Chain>  (1) 
AGTR1_RABIT

>  <UniProt (SwissProt) Primary ID of Target Chain>  (1) 
P34976

>  <UniProt (SwissProt) Secondary ID(s) of Target Chain>  (1) 


>  <UniProt (SwissProt) Alternative ID(s) of Target Chain>  (1) 


>  <UniProt (TrEMBL) Submitted Name of Target Chain>  (1) 


>  <UniProt (TrEMBL) Entry Name of Target Chain>  (1) 


>  <UniProt (TrEMBL) Primary ID of Target Chain>  (1) 


>  <UniProt (TrEMBL) Secondary ID(s) of Target Chain>  (1) 


>  <UniProt (TrEMBL) Alternative ID(s) of Target Chain>  (1) 


$$$$
