
     RDKit          2D

 50 53  0  0  0  0  0  0  0  0999 V2000
    1.3919   -3.9694    0.0000 N   0  0  0  0  0  0  0  0  0  0  0  0
    1.7012   -5.2640    0.0000 N   0  0  0  0  0  0  0  0  0  0  0  0
    2.0163   -4.5021    0.0000 C   0  0  0  0  0  0  0  0  0  0  0  0
    5.3957   -4.4678    0.0000 S   0  0  0  0  0  0  0  0  0  0  0  0
    0.6873   -4.3990    0.0000 N   0  0  0  0  0  0  0  0  0  0  0  0
    1.4606   -3.1446    0.0000 C   0  0  0  0  0  0  0  0  0  0  0  0
    0.8764   -5.1953    0.0000 C   0  0  0  0  0  0  0  0  0  0  0  0
    0.7790   -2.6807    0.0000 C   0  0  0  0  0  0  0  0  0  0  0  0
    5.7909   -3.7461    0.0000 N   0  0  0  0  0  0  0  0  0  0  0  0
    0.0344   -3.0415    0.0000 C   0  0  0  0  0  0  0  0  0  0  0  0
    2.1308   -5.9685    0.0000 C   0  0  0  0  0  0  0  0  0  0  0  0
    5.8253   -5.1723    0.0000 C   0  0  0  0  0  0  0  0  0  0  0  0
    6.6157   -3.7289    0.0000 C   0  0  0  0  0  0  0  0  0  0  0  0
    2.9556   -5.9342    0.0000 C   0  0  0  0  0  0  0  0  0  0  0  0
    5.4187   -5.8940    0.0000 C   0  0  0  0  0  0  0  0  0  0  0  0
    4.6052   -5.8998    0.0000 C   0  0  0  0  0  0  0  0  0  0  0  0
    2.2053   -2.7895    0.0000 C   0  0  0  0  0  0  0  0  0  0  0  0
    3.3738   -6.6501    0.0000 C   0  0  0  0  0  0  0  0  0  0  0  0
    4.7083   -3.8492    0.0000 O   0  0  0  0  0  0  0  0  0  0  0  0
    4.9375   -5.1781    0.0000 O   0  0  0  0  0  0  0  0  0  0  0  0
    0.8420   -1.8616    0.0000 C   0  0  0  0  0  0  0  0  0  0  0  0
    4.1986   -6.6329    0.0000 C   0  0  0  0  0  0  0  0  0  0  0  0
    2.8181   -4.3131    0.0000 O   0  0  0  0  0  0  0  0  0  0  0  0
    3.0817   -0.7962    0.0000 C   0  0  0  0  0  0  0  0  0  0  0  0
    3.0129   -1.6210    0.0000 N   0  0  0  0  0  0  0  0  0  0  0  0
    7.0167   -3.0072    0.0000 O   0  0  0  0  0  0  0  0  0  0  0  0
    2.2683   -1.9647    0.0000 C   0  0  0  0  0  0  0  0  0  0  0  0
    7.0453   -4.4334    0.0000 O   0  0  0  0  0  0  0  0  0  0  0  0
    3.3508   -5.2124    0.0000 C   0  0  0  0  0  0  0  0  0  0  0  0
    4.1756   -5.1953    0.0000 C   0  0  0  0  0  0  0  0  0  0  0  0
    2.3943   -0.3265    0.0000 O   0  0  0  0  0  0  0  0  0  0  0  0
   -0.1718   -3.8721    0.0000 F   0  0  0  0  0  0  0  0  0  0  0  0
   -0.6472   -3.3566    0.0000 F   0  0  0  0  0  0  0  0  0  0  0  0
   -0.7503   -2.6693    0.0000 F   0  0  0  0  0  0  0  0  0  0  0  0
    7.8416   -2.9900    0.0000 C   0  0  0  0  0  0  0  0  0  0  0  0
    1.5867   -1.5008    0.0000 C   0  0  0  0  0  0  0  0  0  0  0  0
    2.9614   -7.3604    0.0000 F   0  0  0  0  0  0  0  0  0  0  0  0
    0.3437   -5.8253    0.0000 C   0  0  0  0  0  0  0  0  0  0  0  0
    6.6387   -5.1551    0.0000 C   0  0  0  0  0  0  0  0  0  0  0  0
    5.8482   -6.5986    0.0000 C   0  0  0  0  0  0  0  0  0  0  0  0
    3.8206   -0.4354    0.0000 C   0  0  0  0  0  0  0  0  0  0  0  0
    8.2654   -3.6945    0.0000 C   0  0  0  0  0  0  0  0  0  0  0  0
    8.6664   -2.9900    0.0000 C   0  0  0  0  0  0  0  0  0  0  0  0
    8.2368   -2.2568    0.0000 C   0  0  0  0  0  0  0  0  0  0  0  0
    0.6186   -6.6043    0.0000 C   0  0  0  0  0  0  0  0  0  0  0  0
    0.0745   -7.2229    0.0000 C   0  0  0  0  0  0  0  0  0  0  0  0
    3.8893    0.3780    0.0000 C   0  0  0  0  0  0  0  0  0  0  0  0
    7.0683   -5.8654    0.0000 C   0  0  0  0  0  0  0  0  0  0  0  0
    6.6731   -6.5871    0.0000 C   0  0  0  0  0  0  0  0  0  0  0  0
    0.3494   -8.0076    0.0000 C   0  0  0  0  0  0  0  0  0  0  0  0
  2  3  1  0
  3  1  1  0
  4 12  1  0
  5  1  1  0
  6  1  1  0
  7  5  2  0
  8  6  2  0
  9  4  1  0
 10  8  1  0
 11  2  1  0
 12 15  2  0
 13  9  1  0
 14 11  1  0
 15 16  1  0
 16 30  1  0
 17  6  1  0
 18 14  2  0
 19  4  2  0
 20  4  2  0
 21  8  1  0
 22 18  1  0
 23  3  2  0
 24 25  1  0
 25 27  1  0
 26 13  1  0
 27 17  2  0
 28 13  2  0
 29 14  1  0
 30 29  2  0
 31 24  2  0
 32 10  1  0
 33 10  1  0
 34 10  1  0
 35 26  1  0
 36 27  1  0
 37 18  1  0
 38  7  1  0
 39 12  1  0
 40 15  1  0
 41 24  1  0
 42 35  1  0
 43 35  1  0
 44 35  1  0
 45 38  1  0
 46 45  1  0
 47 41  1  0
 48 49  1  0
 49 40  2  0
 50 46  1  0
  7  2  1  0
 21 36  2  0
 22 16  2  0
 39 48  2  0
M  END
>  <From>  (1) 
www.bindingDB.org

>  <BindingDB Reactant_set_id>  (1) 
50040385

>  <Ligand InChI>  (1) 
InChI=1S/C34H37F4N5O6S/c1-6-8-13-29-40-43(27-19-23(39-30(44)7-2)16-17-25(27)34(36,37)38)32(46)42(29)20-22-15-14-21(18-26(22)35)24-11-9-10-12-28(24)50(47,48)41-31(45)49-33(3,4)5/h9-12,14-19H,6-8,13,20H2,1-5H3,(H,39,44)(H,41,45)

>  <Ligand InChI Key>  (1) 
UTHMGJDXHJNITH-UHFFFAOYSA-N

>  <BindingDB MonomerID>  (1) 
50030690

>  <BindingDB Ligand Name>  (1) 
CHEMBL339113::N-{3-[3-Butyl-4-(3-fluoro-2'-(N-t-butyloxycarbonyl)-Sulfanamido-biphenyl-4-ylmethyl)-5-oxo-4,5-dihydro-[1,2,4]triazol-1-yl]-4-trifluoromethyl-phenyl}-propionamide

>  <Target Name>  (1) 
Type-1 angiotensin II receptor

>  <Target Source Organism According to Curator or DataSource>  (1) 
Oryctolagus cuniculus

>  <Ki (nM)>  (1) 


>  <IC50 (nM)>  (1) 
 0.280000

>  <Kd (nM)>  (1) 


>  <EC50 (nM)>  (1) 


>  <kon (M-1-s-1)>  (1) 


>  <koff (s-1)>  (1) 


>  <pH>  (1) 


>  <Temp C>  (1) 


>  <Curation/DataSource>  (1) 
ChEMBL

>  <Article DOI>  (1) 
10.1021/jm00019a004

>  <BindingDB Entry DOI>  (1) 
10.7270/Q2Q81C35

>  <PMID>  (1) 
7562905

>  <PubChem AID>  (1) 


>  <Patent Number>  (1) 


>  <Authors>  (1) 
Chang, LL; Ashton, WT; Flanagan, KL; Chen, TB; O'Malley, SS; Zingaro, GJ; Kivlighn, SD; Siegl, PK; Lotti, VJ; Chang, RS

>  <Institution>  (1) 
Merck Research Laboratories

>  <Link to Ligand in BindingDB>  (1) 
http://www.bindingdb.org/bind/chemsearch/marvin/MolStructure.jsp?monomerid=50030690

>  <Link to Ligand-Target Pair in BindingDB>  (1) 
http://www.bindingdb.org/jsp/dbsearch/PrimarySearch_ki.jsp?energyterm=kJ/mole&tag=r21&monomerid=50030690&enzyme=Type-1+angiotensin+II+receptor&column=ki&startPg=0&Increment=50&submit=Search

>  <Ligand HET ID in PDB>  (1) 


>  <PDB ID(s) for Ligand-Target Complex>  (1) 


>  <PubChem CID of Ligand>  (1) 
9987414

>  <PubChem SID of Ligand>  (1) 
103939538

>  <ChEBI ID of Ligand>  (1) 


>  <ChEMBL ID of Ligand>  (1) 
CHEMBL339113

>  <DrugBank ID of Ligand>  (1) 


>  <IUPHAR_GRAC ID of Ligand>  (1) 


>  <KEGG ID of Ligand>  (1) 


>  <ZINC ID of Ligand>  (1) 
ZINC27207395

>  <Number of Protein Chains in Target (bigger than 1 implies a multichain complex)>  (1) 
1

>  <BindingDB Target Chain Sequence>  (1) 
MMLNSSTEDGIKRIQDDCPKAGRHNYIFVMIPTLYSIIFVVGIFGNSLAVIVIYFYMKLKTVASVFLLNLALADLCFLLTLPLWAVYTAMEYRWPFGNYLCKIASASVSFNLYASVFLLTCLSIDRYLAIVHPMKSRLRRTMLVAKVTCIIIWLLAGLASLPAIIHRNVFFIENTNITVCAFHYESQNSTLPIGLGLTKNILGFLFPFLIILTSYTLIWKALKKAYEIQKNKPRNDDIFKIIMAIVLFFFFSWVPHQIFTFLDVLIQLGVIHDCRIADIVDTAMPITICIAYFNNCLNPLFYGFLGKKFKKYFLQLLKYIPPKAKSHSNLSTKMSTLSYRPSDNVSSSSKKPVPCFEVE

>  <PDB ID(s) of Target Chain>  (1) 
6DO1,6OS0,6OS1,6OS2

>  <UniProt (SwissProt) Recommended Name of Target Chain>  (1) 
Type-1 angiotensin II receptor

>  <UniProt (SwissProt) Entry Name of Target Chain>  (1) 
AGTR1_RABIT

>  <UniProt (SwissProt) Primary ID of Target Chain>  (1) 
P34976

>  <UniProt (SwissProt) Secondary ID(s) of Target Chain>  (1) 


>  <UniProt (SwissProt) Alternative ID(s) of Target Chain>  (1) 


>  <UniProt (TrEMBL) Submitted Name of Target Chain>  (1) 


>  <UniProt (TrEMBL) Entry Name of Target Chain>  (1) 


>  <UniProt (TrEMBL) Primary ID of Target Chain>  (1) 


>  <UniProt (TrEMBL) Secondary ID(s) of Target Chain>  (1) 


>  <UniProt (TrEMBL) Alternative ID(s) of Target Chain>  (1) 


$$$$
