
     RDKit          2D

 35 39  0  0  0  0  0  0  0  0999 V2000
    7.4917   -6.5667    0.0000 C   0  0  0  0  0  0  0  0  0  0  0  0
    7.5792   -5.2000    0.0000 N   0  0  0  0  0  0  0  0  0  0  0  0
    6.9917   -5.8667    0.0000 N   0  0  0  0  0  0  0  0  0  0  0  0
    8.3875   -5.5792    0.0000 N   0  0  0  0  0  0  0  0  0  0  0  0
    8.3000   -6.3875    0.0000 N   0  0  0  0  0  0  0  0  0  0  0  0
    5.2792   -2.1167    0.0000 C   0  0  0  0  0  0  0  0  0  0  0  0
    6.9042   -7.1542    0.0000 C   0  0  0  0  0  0  0  0  0  0  0  0
    4.5667   -0.8792    0.0000 N   0  0  0  0  0  0  0  0  0  0  0  0
    4.5667   -2.5292    0.0000 C   0  0  0  0  0  0  0  0  0  0  0  0
    5.2792   -1.2917    0.0000 C   0  0  0  0  0  0  0  0  0  0  0  0
    6.1167   -6.9375    0.0000 C   0  0  0  0  0  0  0  0  0  0  0  0
    3.8667   -2.1167    0.0000 C   0  0  0  0  0  0  0  0  0  0  0  0
    3.8667   -1.2917    0.0000 C   0  0  0  0  0  0  0  0  0  0  0  0
    5.9125   -6.1417    0.0000 C   0  0  0  0  0  0  0  0  0  0  0  0
    5.9875   -2.5292    0.0000 C   0  0  0  0  0  0  0  0  0  0  0  0
    4.5667   -3.3542    0.0000 O   0  0  0  0  0  0  0  0  0  0  0  0
    6.7042   -2.1167    0.0000 C   0  0  0  0  0  0  0  0  0  0  0  0
    5.9917   -0.8792    0.0000 C   0  0  0  0  0  0  0  0  0  0  0  0
    7.4250   -2.5375    0.0000 O   0  0  0  0  0  0  0  0  0  0  0  0
    5.1042   -5.9292    0.0000 C   0  0  0  0  0  0  0  0  0  0  0  0
    6.4917   -5.5625    0.0000 C   0  0  0  0  0  0  0  0  0  0  0  0
    5.2792   -3.7667    0.0000 C   0  0  0  0  0  0  0  0  0  0  0  0
    6.7042   -1.2917    0.0000 C   0  0  0  0  0  0  0  0  0  0  0  0
    5.5000   -4.5542    0.0000 C   0  0  0  0  0  0  0  0  0  0  0  0
    4.9042   -5.1292    0.0000 C   0  0  0  0  0  0  0  0  0  0  0  0
    6.2792   -4.7667    0.0000 C   0  0  0  0  0  0  0  0  0  0  0  0
    7.1292   -7.9500    0.0000 C   0  0  0  0  0  0  0  0  0  0  0  0
    5.5292   -7.5167    0.0000 C   0  0  0  0  0  0  0  0  0  0  0  0
    8.1292   -2.1375    0.0000 C   0  0  0  0  0  0  0  0  0  0  0  0
    3.1417   -0.8792    0.0000 C   0  0  0  0  0  0  0  0  0  0  0  0
    8.8500   -2.5500    0.0000 C   0  0  0  0  0  0  0  0  0  0  0  0
    8.1417   -1.3125    0.0000 C   0  0  0  0  0  0  0  0  0  0  0  0
    3.1417   -0.0542    0.0000 C   0  0  0  0  0  0  0  0  0  0  0  0
    6.5375   -8.5375    0.0000 C   0  0  0  0  0  0  0  0  0  0  0  0
    5.7417   -8.3250    0.0000 C   0  0  0  0  0  0  0  0  0  0  0  0
  2  3  1  0
  3  1  1  0
  4  5  1  0
  5  1  2  0
  6  9  1  0
  7  1  1  0
  8 13  2  0
  9 16  1  0
 10  6  2  0
 11  7  1  0
 12  9  2  0
 13 12  1  0
 14 11  1  0
 15  6  1  0
 16 22  1  0
 17 15  2  0
 18 10  1  0
 19 17  1  0
 20 14  2  0
 21 14  1  0
 22 24  1  0
 23 17  1  0
 24 26  1  0
 25 20  1  0
 26 21  2  0
 27  7  2  0
 28 11  2  0
 29 19  1  0
 30 13  1  0
 31 29  1  0
 32 29  1  0
 33 30  1  0
 34 27  1  0
 35 34  2  0
  2  4  2  0
 35 28  1  0
 25 24  2  0
  8 10  1  0
 18 23  2  0
M  END
>  <From>  (1) 
www.bindingDB.org

>  <BindingDB Reactant_set_id>  (1) 
50005389

>  <Ligand InChI>  (1) 
InChI=1S/C28H27N5O2/c1-4-21-15-27(25-16-22(35-18(2)3)13-14-26(25)29-21)34-17-19-9-11-20(12-10-19)23-7-5-6-8-24(23)28-30-32-33-31-28/h5-16,18H,4,17H2,1-3H3,(H,30,31,32,33)

>  <Ligand InChI Key>  (1) 
WKPMEBRCZJUODK-UHFFFAOYSA-N

>  <BindingDB MonomerID>  (1) 
50003403

>  <BindingDB Ligand Name>  (1) 
2-Ethyl-6-isopropoxy-4-[2'-(1H-tetrazol-5-yl)-biphenyl-4-ylmethoxy]-quinoline::CHEMBL337955

>  <Target Name>  (1) 
Type-1 angiotensin II receptor

>  <Target Source Organism According to Curator or DataSource>  (1) 
Cavia porcellus

>  <Ki (nM)>  (1) 


>  <IC50 (nM)>  (1) 
 26

>  <Kd (nM)>  (1) 


>  <EC50 (nM)>  (1) 


>  <kon (M-1-s-1)>  (1) 


>  <koff (s-1)>  (1) 


>  <pH>  (1) 


>  <Temp C>  (1) 


>  <Curation/DataSource>  (1) 
ChEMBL

>  <Article DOI>  (1) 
10.1021/jm00100a007

>  <BindingDB Entry DOI>  (1) 
10.7270/Q2G44P8Q

>  <PMID>  (1) 
1433210

>  <PubChem AID>  (1) 


>  <Patent Number>  (1) 


>  <Authors>  (1) 
Bradbury, RH; Allott, CP; Dennis, M; Fisher, E; Major, JS; Masek, BB; Oldham, AA; Pearce, RJ; Rankine, N; Revill, JM

>  <Institution>  (1) 
ICI Pharmaceuticals Group

>  <Link to Ligand in BindingDB>  (1) 
http://www.bindingdb.org/bind/chemsearch/marvin/MolStructure.jsp?monomerid=50003403

>  <Link to Ligand-Target Pair in BindingDB>  (1) 
http://www.bindingdb.org/jsp/dbsearch/PrimarySearch_ki.jsp?energyterm=kJ/mole&tag=r21&monomerid=50003403&enzyme=Type-1+angiotensin+II+receptor&column=ki&startPg=0&Increment=50&submit=Search

>  <Ligand HET ID in PDB>  (1) 


>  <PDB ID(s) for Ligand-Target Complex>  (1) 


>  <PubChem CID of Ligand>  (1) 
10028993

>  <PubChem SID of Ligand>  (1) 
103917376

>  <ChEBI ID of Ligand>  (1) 


>  <ChEMBL ID of Ligand>  (1) 
CHEMBL337955

>  <DrugBank ID of Ligand>  (1) 


>  <IUPHAR_GRAC ID of Ligand>  (1) 


>  <KEGG ID of Ligand>  (1) 


>  <ZINC ID of Ligand>  (1) 
ZINC53040531

>  <Number of Protein Chains in Target (bigger than 1 implies a multichain complex)>  (1) 
1

>  <BindingDB Target Chain Sequence>  (1) 
MILNSSTEDGIKRIQDDCPKAGRHSYIFVMIPTLYSIIFVVGIFGNSLVVIVIYFYMKLKTVASVFLLNLALADICFLLTLPLWAVYTAMEYRWPFGNYLCKIASASVSFNLYASVFLLTCLSIDRYLAIVHPMKSRLRRTMLVAKVTCVIIWLMAGLASLPAVIHRNVFFIENTNITVCAFHYESQNSTLPIGLGLTKNILGFMFPFLIILTSYTLIWKALKKAYEIQKNKPRNDDIFKIIMAIVLFFFFSWVPHQIFTFLDVLIQLGIIHDCKISDIVDTAMPITICIAYFNNCLNPLFYGFLGKKFKKYFLQLLKYIPPKAKSHSTLSTKMSTLSYRPSDNVSSSAKKPVQCFEVE

>  <PDB ID(s) of Target Chain>  (1) 
4ZUD

>  <UniProt (SwissProt) Recommended Name of Target Chain>  (1) 
Type-1 angiotensin II receptor

>  <UniProt (SwissProt) Entry Name of Target Chain>  (1) 
AGTR1_CAVPO

>  <UniProt (SwissProt) Primary ID of Target Chain>  (1) 
Q9WV26

>  <UniProt (SwissProt) Secondary ID(s) of Target Chain>  (1) 


>  <UniProt (SwissProt) Alternative ID(s) of Target Chain>  (1) 


>  <UniProt (TrEMBL) Submitted Name of Target Chain>  (1) 


>  <UniProt (TrEMBL) Entry Name of Target Chain>  (1) 


>  <UniProt (TrEMBL) Primary ID of Target Chain>  (1) 


>  <UniProt (TrEMBL) Secondary ID(s) of Target Chain>  (1) 


>  <UniProt (TrEMBL) Alternative ID(s) of Target Chain>  (1) 


$$$$
