
     RDKit          2D

 53 57  0  0  0  0  0  0  0  0999 V2000
    2.5146   -5.4702    0.0000 N   0  0  0  0  0  0  0  0  0  0  0  0
    2.8239   -6.7704    0.0000 N   0  0  0  0  0  0  0  0  0  0  0  0
    6.5184   -5.9685    0.0000 S   0  0  0  0  0  0  0  0  0  0  0  0
    3.1332   -6.0029    0.0000 C   0  0  0  0  0  0  0  0  0  0  0  0
    1.8101   -5.8998    0.0000 N   0  0  0  0  0  0  0  0  0  0  0  0
    2.5833   -4.6454    0.0000 C   0  0  0  0  0  0  0  0  0  0  0  0
    1.9991   -6.7074    0.0000 C   0  0  0  0  0  0  0  0  0  0  0  0
    6.9136   -5.2468    0.0000 N   0  0  0  0  0  0  0  0  0  0  0  0
    1.8960   -4.1814    0.0000 C   0  0  0  0  0  0  0  0  0  0  0  0
    7.7385   -5.2296    0.0000 C   0  0  0  0  0  0  0  0  0  0  0  0
    8.1337   -4.5079    0.0000 C   0  0  0  0  0  0  0  0  0  0  0  0
    1.1571   -4.5423    0.0000 C   0  0  0  0  0  0  0  0  0  0  0  0
    3.2535   -7.4749    0.0000 C   0  0  0  0  0  0  0  0  0  0  0  0
    6.9480   -6.6731    0.0000 C   0  0  0  0  0  0  0  0  0  0  0  0
    4.0783   -7.4463    0.0000 C   0  0  0  0  0  0  0  0  0  0  0  0
    6.5470   -7.3948    0.0000 C   0  0  0  0  0  0  0  0  0  0  0  0
    5.7280   -7.4120    0.0000 C   0  0  0  0  0  0  0  0  0  0  0  0
    3.3222   -4.3017    0.0000 C   0  0  0  0  0  0  0  0  0  0  0  0
    4.5021   -8.1509    0.0000 C   0  0  0  0  0  0  0  0  0  0  0  0
    6.0659   -6.6845    0.0000 O   0  0  0  0  0  0  0  0  0  0  0  0
    5.8311   -5.3499    0.0000 O   0  0  0  0  0  0  0  0  0  0  0  0
    1.9647   -3.3680    0.0000 C   0  0  0  0  0  0  0  0  0  0  0  0
    5.3270   -8.1337    0.0000 C   0  0  0  0  0  0  0  0  0  0  0  0
    3.9409   -5.8139    0.0000 O   0  0  0  0  0  0  0  0  0  0  0  0
    8.9585   -4.4907    0.0000 C   0  0  0  0  0  0  0  0  0  0  0  0
    7.7041   -3.8034    0.0000 C   0  0  0  0  0  0  0  0  0  0  0  0
    4.1986   -2.3026    0.0000 C   0  0  0  0  0  0  0  0  0  0  0  0
    4.1299   -3.1274    0.0000 N   0  0  0  0  0  0  0  0  0  0  0  0
    3.3910   -3.4769    0.0000 C   0  0  0  0  0  0  0  0  0  0  0  0
    8.1681   -5.9342    0.0000 O   0  0  0  0  0  0  0  0  0  0  0  0
    4.4736   -6.7246    0.0000 C   0  0  0  0  0  0  0  0  0  0  0  0
    5.2984   -6.7074    0.0000 C   0  0  0  0  0  0  0  0  0  0  0  0
    3.5227   -1.8273    0.0000 O   0  0  0  0  0  0  0  0  0  0  0  0
    0.3666   -4.1814    0.0000 F   0  0  0  0  0  0  0  0  0  0  0  0
    0.9509   -5.3843    0.0000 F   0  0  0  0  0  0  0  0  0  0  0  0
    0.4697   -4.8688    0.0000 F   0  0  0  0  0  0  0  0  0  0  0  0
    9.3537   -3.7690    0.0000 C   0  0  0  0  0  0  0  0  0  0  0  0
    8.0993   -3.0817    0.0000 C   0  0  0  0  0  0  0  0  0  0  0  0
    2.7150   -3.0072    0.0000 C   0  0  0  0  0  0  0  0  0  0  0  0
    4.0783   -8.8668    0.0000 F   0  0  0  0  0  0  0  0  0  0  0  0
    9.3709   -5.2067    0.0000 Cl  0  0  0  0  0  0  0  0  0  0  0  0
    1.4664   -7.3261    0.0000 C   0  0  0  0  0  0  0  0  0  0  0  0
    8.9356   -3.0645    0.0000 C   0  0  0  0  0  0  0  0  0  0  0  0
    7.6869   -2.3714    0.0000 Cl  0  0  0  0  0  0  0  0  0  0  0  0
    7.7671   -6.6559    0.0000 C   0  0  0  0  0  0  0  0  0  0  0  0
    6.9766   -8.0993    0.0000 C   0  0  0  0  0  0  0  0  0  0  0  0
    4.9489   -1.9475    0.0000 C   0  0  0  0  0  0  0  0  0  0  0  0
    1.7413   -8.1107    0.0000 C   0  0  0  0  0  0  0  0  0  0  0  0
    1.2029   -8.7351    0.0000 C   0  0  0  0  0  0  0  0  0  0  0  0
    5.0177   -1.1227    0.0000 C   0  0  0  0  0  0  0  0  0  0  0  0
    7.7900   -8.0936    0.0000 C   0  0  0  0  0  0  0  0  0  0  0  0
    8.1967   -7.3718    0.0000 C   0  0  0  0  0  0  0  0  0  0  0  0
    1.4778   -9.5084    0.0000 C   0  0  0  0  0  0  0  0  0  0  0  0
  2  4  1  0
  3 14  1  0
  4  1  1  0
  5  1  1  0
  6  1  1  0
  7  5  2  0
  8  3  1  0
  9  6  2  0
 10  8  1  0
 11 10  1  0
 12  9  1  0
 13  2  1  0
 14 16  1  0
 15 13  1  0
 16 17  1  0
 17 32  1  0
 18  6  1  0
 19 15  2  0
 20  3  2  0
 21  3  2  0
 22  9  1  0
 23 19  1  0
 24  4  2  0
 25 11  2  0
 26 11  1  0
 27 28  1  0
 28 29  1  0
 29 18  2  0
 30 10  2  0
 31 15  1  0
 32 31  2  0
 33 27  2  0
 34 12  1  0
 35 12  1  0
 36 12  1  0
 37 25  1  0
 38 26  2  0
 39 29  1  0
 40 19  1  0
 41 25  1  0
 42  7  1  0
 43 38  1  0
 44 38  1  0
 45 14  2  0
 46 16  2  0
 47 27  1  0
 48 42  1  0
 49 48  1  0
 50 47  1  0
 51 46  1  0
 52 51  2  0
 53 49  1  0
  7  2  1  0
 39 22  2  0
 23 17  2  0
 52 45  1  0
 37 43  2  0
M  END
>  <From>  (1) 
www.bindingDB.org

>  <BindingDB Reactant_set_id>  (1) 
51183666

>  <Ligand InChI>  (1) 
InChI=1S/C36H31Cl2F4N5O5S/c1-3-5-10-32-44-47(30-19-24(43-33(48)4-2)14-15-27(30)36(40,41)42)35(50)46(32)20-22-12-11-21(17-29(22)39)25-8-6-7-9-31(25)53(51,52)45-34(49)26-18-23(37)13-16-28(26)38/h6-9,11-19H,3-5,10,20H2,1-2H3,(H,43,48)(H,45,49)

>  <Ligand InChI Key>  (1) 
WYPIMZRCEFEPBN-UHFFFAOYSA-N

>  <BindingDB MonomerID>  (1) 
50030704

>  <BindingDB Ligand Name>  (1) 
CHEMBL340078::N-(3-{3-Butyl-4-[2'-(2,5-dichloro-benzoylsulfamoyl)-3-fluoro-biphenyl-4-ylmethyl]-5-oxo-4,5-dihydro-[1,2,4]triazol-1-yl}-4-trifluoromethyl-phenyl)-propionamide

>  <Target Name>  (1) 
Type-1 angiotensin II receptor

>  <Target Source Organism According to Curator or DataSource>  (1) 
Oryctolagus cuniculus

>  <Ki (nM)>  (1) 


>  <IC50 (nM)>  (1) 
 0.360000

>  <Kd (nM)>  (1) 


>  <EC50 (nM)>  (1) 


>  <kon (M-1-s-1)>  (1) 


>  <koff (s-1)>  (1) 


>  <pH>  (1) 


>  <Temp C>  (1) 


>  <Curation/DataSource>  (1) 
ChEMBL

>  <Article DOI>  (1) 
10.1007/s00044-011-9815-x

>  <BindingDB Entry DOI>  (1) 
10.7270/Q2VT1W0S

>  <PMID>  (1) 


>  <PubChem AID>  (1) 


>  <Patent Number>  (1) 


>  <Authors>  (1) 
n/a

>  <Institution>  (1) 
n/a

>  <Link to Ligand in BindingDB>  (1) 
http://www.bindingdb.org/bind/chemsearch/marvin/MolStructure.jsp?monomerid=50030704

>  <Link to Ligand-Target Pair in BindingDB>  (1) 
http://www.bindingdb.org/jsp/dbsearch/PrimarySearch_ki.jsp?energyterm=kJ/mole&tag=r21&monomerid=50030704&enzyme=Type-1+angiotensin+II+receptor&column=ki&startPg=0&Increment=50&submit=Search

>  <Ligand HET ID in PDB>  (1) 


>  <PDB ID(s) for Ligand-Target Complex>  (1) 


>  <PubChem CID of Ligand>  (1) 
10373120

>  <PubChem SID of Ligand>  (1) 
103939552

>  <ChEBI ID of Ligand>  (1) 


>  <ChEMBL ID of Ligand>  (1) 
CHEMBL340078

>  <DrugBank ID of Ligand>  (1) 


>  <IUPHAR_GRAC ID of Ligand>  (1) 


>  <KEGG ID of Ligand>  (1) 


>  <ZINC ID of Ligand>  (1) 
ZINC95611400

>  <Number of Protein Chains in Target (bigger than 1 implies a multichain complex)>  (1) 
1

>  <BindingDB Target Chain Sequence>  (1) 
MMLNSSTEDGIKRIQDDCPKAGRHNYIFVMIPTLYSIIFVVGIFGNSLAVIVIYFYMKLKTVASVFLLNLALADLCFLLTLPLWAVYTAMEYRWPFGNYLCKIASASVSFNLYASVFLLTCLSIDRYLAIVHPMKSRLRRTMLVAKVTCIIIWLLAGLASLPAIIHRNVFFIENTNITVCAFHYESQNSTLPIGLGLTKNILGFLFPFLIILTSYTLIWKALKKAYEIQKNKPRNDDIFKIIMAIVLFFFFSWVPHQIFTFLDVLIQLGVIHDCRIADIVDTAMPITICIAYFNNCLNPLFYGFLGKKFKKYFLQLLKYIPPKAKSHSNLSTKMSTLSYRPSDNVSSSSKKPVPCFEVE

>  <PDB ID(s) of Target Chain>  (1) 
6DO1,6OS0,6OS1,6OS2

>  <UniProt (SwissProt) Recommended Name of Target Chain>  (1) 
Type-1 angiotensin II receptor

>  <UniProt (SwissProt) Entry Name of Target Chain>  (1) 
AGTR1_RABIT

>  <UniProt (SwissProt) Primary ID of Target Chain>  (1) 
P34976

>  <UniProt (SwissProt) Secondary ID(s) of Target Chain>  (1) 


>  <UniProt (SwissProt) Alternative ID(s) of Target Chain>  (1) 


>  <UniProt (TrEMBL) Submitted Name of Target Chain>  (1) 


>  <UniProt (TrEMBL) Entry Name of Target Chain>  (1) 


>  <UniProt (TrEMBL) Primary ID of Target Chain>  (1) 


>  <UniProt (TrEMBL) Secondary ID(s) of Target Chain>  (1) 


>  <UniProt (TrEMBL) Alternative ID(s) of Target Chain>  (1) 


$$$$
