
     RDKit          2D

 32 36  0  0  0  0  0  0  0  0999 V2000
    1.9958   -1.1691    0.0000 N   0  0  0  0  0  0  0  0  0  0  0  0
    2.6597   -0.6806    0.0000 C   0  0  0  0  0  0  0  0  0  0  0  0
    5.9665   -1.1315    0.0000 S   0  0  0  0  0  0  0  0  0  0  0  0
    5.5615   -2.4092    0.0000 C   0  0  0  0  0  0  0  0  0  0  0  0
    6.2296   -1.9207    0.0000 N   0  0  0  0  0  0  0  0  0  0  0  0
    1.5783    0.1002    0.0000 N   0  0  0  0  0  0  0  0  0  0  0  0
    1.3194   -0.6889    0.0000 C   0  0  0  0  0  0  0  0  0  0  0  0
    4.8893   -1.9207    0.0000 N   0  0  0  0  0  0  0  0  0  0  0  0
    2.4050    0.0960    0.0000 C   0  0  0  0  0  0  0  0  0  0  0  0
    5.1398   -1.1399    0.0000 O   0  0  0  0  0  0  0  0  0  0  0  0
    3.4614   -0.8560    0.0000 N   0  0  0  0  0  0  0  0  0  0  0  0
    5.5657   -3.2359    0.0000 C   0  0  0  0  0  0  0  0  0  0  0  0
    2.9478    0.7098    0.0000 C   0  0  0  0  0  0  0  0  0  0  0  0
    4.8517   -3.6492    0.0000 C   0  0  0  0  0  0  0  0  0  0  0  0
    1.9958   -1.9958    0.0000 C   0  0  0  0  0  0  0  0  0  0  0  0
    5.9665   -0.3048    0.0000 O   0  0  0  0  0  0  0  0  0  0  0  0
    4.1378   -3.2359    0.0000 C   0  0  0  0  0  0  0  0  0  0  0  0
    4.0125   -0.2422    0.0000 C   0  0  0  0  0  0  0  0  0  0  0  0
    3.7578    0.5386    0.0000 C   0  0  0  0  0  0  0  0  0  0  0  0
    3.4238   -3.6492    0.0000 C   0  0  0  0  0  0  0  0  0  0  0  0
    4.1378   -2.4092    0.0000 C   0  0  0  0  0  0  0  0  0  0  0  0
    2.7098   -2.4092    0.0000 C   0  0  0  0  0  0  0  0  0  0  0  0
    0.5386   -0.9437    0.0000 C   0  0  0  0  0  0  0  0  0  0  0  0
    3.4238   -1.9958    0.0000 C   0  0  0  0  0  0  0  0  0  0  0  0
    2.7098   -3.2359    0.0000 C   0  0  0  0  0  0  0  0  0  0  0  0
    6.2797   -3.6450    0.0000 C   0  0  0  0  0  0  0  0  0  0  0  0
    4.8517   -4.4760    0.0000 C   0  0  0  0  0  0  0  0  0  0  0  0
    2.6973    1.4989    0.0000 C   0  0  0  0  0  0  0  0  0  0  0  0
    4.8225   -0.4176    0.0000 C   0  0  0  0  0  0  0  0  0  0  0  0
   -0.0835   -0.3925    0.0000 C   0  0  0  0  0  0  0  0  0  0  0  0
    5.5657   -4.8893    0.0000 C   0  0  0  0  0  0  0  0  0  0  0  0
    6.2880   -4.4760    0.0000 C   0  0  0  0  0  0  0  0  0  0  0  0
  2  1  1  0
  3  5  1  0
  4 12  1  0
  5  4  2  0
  6  7  2  0
  7  1  1  0
  8  4  1  0
  9  2  2  0
 10  8  1  0
 11  2  1  0
 12 14  1  0
 13  9  1  0
 14 17  1  0
 15  1  1  0
 16  3  2  0
 17 20  2  0
 18 11  2  0
 19 18  1  0
 20 25  1  0
 21 24  2  0
 22 15  1  0
 23  7  1  0
 24 22  1  0
 25 22  2  0
 26 12  2  0
 27 14  2  0
 28 13  1  0
 29 18  1  0
 30 23  1  0
 31 27  1  0
 32 31  2  0
  6  9  1  0
 21 17  1  0
 13 19  2  0
 32 26  1  0
 10  3  1  0
M  END
>  <From>  (1) 
www.bindingDB.org

>  <BindingDB Reactant_set_id>  (1) 
50620736

>  <Ligand InChI>  (1) 
InChI=1S/C24H23N5O2S/c1-4-21-26-22-15(2)13-16(3)25-24(22)29(21)14-17-9-11-18(12-10-17)19-7-5-6-8-20(19)23-27-31-32(30)28-23/h5-13H,4,14H2,1-3H3,(H,27,28)

>  <Ligand InChI Key>  (1) 
NWZZJFYBFATYKU-UHFFFAOYSA-N

>  <BindingDB MonomerID>  (1) 
50282383

>  <BindingDB Ligand Name>  (1) 
2-Ethyl-5,7-dimethyl-3-[2'-(2-oxo-2,3-dihydro-2lambda*4*-[1,2,3,5]oxathiadiazol-4-yl)-biphenyl-4-ylmethyl]-3H-imidazo[4,5-b]pyridine::CHEMBL344407

>  <Target Name>  (1) 
Type-1 angiotensin II receptor

>  <Target Source Organism According to Curator or DataSource>  (1) 
Oryctolagus cuniculus

>  <Ki (nM)>  (1) 


>  <IC50 (nM)>  (1) 
 0.7

>  <Kd (nM)>  (1) 


>  <EC50 (nM)>  (1) 


>  <kon (M-1-s-1)>  (1) 


>  <koff (s-1)>  (1) 


>  <pH>  (1) 


>  <Temp C>  (1) 


>  <Curation/DataSource>  (1) 
ChEMBL

>  <Article DOI>  (1) 
10.1016/j.bmc.2010.10.043

>  <BindingDB Entry DOI>  (1) 
10.7270/Q2H70G3T

>  <PMID>  (1) 
21071232

>  <PubChem AID>  (1) 


>  <Patent Number>  (1) 


>  <Authors>  (1) 
Naik, P; Murumkar, P; Giridhar, R; Yadav, MR

>  <Institution>  (1) 
The M. S. University of Baroda

>  <Link to Ligand in BindingDB>  (1) 
http://www.bindingdb.org/bind/chemsearch/marvin/MolStructure.jsp?monomerid=50282383

>  <Link to Ligand-Target Pair in BindingDB>  (1) 
http://www.bindingdb.org/jsp/dbsearch/PrimarySearch_ki.jsp?energyterm=kJ/mole&tag=r21&monomerid=50282383&enzyme=Type-1+angiotensin+II+receptor&column=ki&startPg=0&Increment=50&submit=Search

>  <Ligand HET ID in PDB>  (1) 


>  <PDB ID(s) for Ligand-Target Complex>  (1) 


>  <PubChem CID of Ligand>  (1) 
9824776

>  <PubChem SID of Ligand>  (1) 
104124057

>  <ChEBI ID of Ligand>  (1) 


>  <ChEMBL ID of Ligand>  (1) 
CHEMBL344407

>  <DrugBank ID of Ligand>  (1) 


>  <IUPHAR_GRAC ID of Ligand>  (1) 


>  <KEGG ID of Ligand>  (1) 


>  <ZINC ID of Ligand>  (1) 
ZINC11687216

>  <Number of Protein Chains in Target (bigger than 1 implies a multichain complex)>  (1) 
1

>  <BindingDB Target Chain Sequence>  (1) 
MMLNSSTEDGIKRIQDDCPKAGRHNYIFVMIPTLYSIIFVVGIFGNSLAVIVIYFYMKLKTVASVFLLNLALADLCFLLTLPLWAVYTAMEYRWPFGNYLCKIASASVSFNLYASVFLLTCLSIDRYLAIVHPMKSRLRRTMLVAKVTCIIIWLLAGLASLPAIIHRNVFFIENTNITVCAFHYESQNSTLPIGLGLTKNILGFLFPFLIILTSYTLIWKALKKAYEIQKNKPRNDDIFKIIMAIVLFFFFSWVPHQIFTFLDVLIQLGVIHDCRIADIVDTAMPITICIAYFNNCLNPLFYGFLGKKFKKYFLQLLKYIPPKAKSHSNLSTKMSTLSYRPSDNVSSSSKKPVPCFEVE

>  <PDB ID(s) of Target Chain>  (1) 
6DO1,6OS0,6OS1,6OS2

>  <UniProt (SwissProt) Recommended Name of Target Chain>  (1) 
Type-1 angiotensin II receptor

>  <UniProt (SwissProt) Entry Name of Target Chain>  (1) 
AGTR1_RABIT

>  <UniProt (SwissProt) Primary ID of Target Chain>  (1) 
P34976

>  <UniProt (SwissProt) Secondary ID(s) of Target Chain>  (1) 


>  <UniProt (SwissProt) Alternative ID(s) of Target Chain>  (1) 


>  <UniProt (TrEMBL) Submitted Name of Target Chain>  (1) 


>  <UniProt (TrEMBL) Entry Name of Target Chain>  (1) 


>  <UniProt (TrEMBL) Primary ID of Target Chain>  (1) 


>  <UniProt (TrEMBL) Secondary ID(s) of Target Chain>  (1) 


>  <UniProt (TrEMBL) Alternative ID(s) of Target Chain>  (1) 


$$$$
