
     RDKit          2D

 33 37  0  0  0  0  0  0  0  0999 V2000
    1.2167   -3.2375    0.0000 N   0  0  0  0  0  0  0  0  0  0  0  0
    1.2125   -1.8917    0.0000 N   0  0  0  0  0  0  0  0  0  0  0  0
    0.4292   -2.9792    0.0000 C   0  0  0  0  0  0  0  0  0  0  0  0
    1.7042   -2.5625    0.0000 C   0  0  0  0  0  0  0  0  0  0  0  0
    0.3625   -7.4292    0.0000 C   0  0  0  0  0  0  0  0  0  0  0  0
    0.4250   -2.1542    0.0000 C   0  0  0  0  0  0  0  0  0  0  0  0
    0.9667   -6.8667    0.0000 N   0  0  0  0  0  0  0  0  0  0  0  0
    1.6875   -7.2750    0.0000 N   0  0  0  0  0  0  0  0  0  0  0  0
    1.5167   -8.0792    0.0000 N   0  0  0  0  0  0  0  0  0  0  0  0
    0.7000   -8.1750    0.0000 N   0  0  0  0  0  0  0  0  0  0  0  0
   -0.4458   -7.2625    0.0000 C   0  0  0  0  0  0  0  0  0  0  0  0
   -0.2958   -3.3917    0.0000 N   0  0  0  0  0  0  0  0  0  0  0  0
    1.4792   -4.0167    0.0000 C   0  0  0  0  0  0  0  0  0  0  0  0
   -0.7083   -6.4792    0.0000 O   0  0  0  0  0  0  0  0  0  0  0  0
   -0.2958   -1.7417    0.0000 C   0  0  0  0  0  0  0  0  0  0  0  0
   -0.9958   -7.8792    0.0000 C   0  0  0  0  0  0  0  0  0  0  0  0
   -0.1625   -5.8667    0.0000 C   0  0  0  0  0  0  0  0  0  0  0  0
    0.9292   -4.6292    0.0000 C   0  0  0  0  0  0  0  0  0  0  0  0
    2.5292   -2.5542    0.0000 C   0  0  0  0  0  0  0  0  0  0  0  0
   -1.0083   -2.9792    0.0000 C   0  0  0  0  0  0  0  0  0  0  0  0
   -0.4208   -5.0792    0.0000 C   0  0  0  0  0  0  0  0  0  0  0  0
    0.6500   -6.0292    0.0000 C   0  0  0  0  0  0  0  0  0  0  0  0
    0.1250   -4.4667    0.0000 C   0  0  0  0  0  0  0  0  0  0  0  0
    1.1917   -5.4125    0.0000 C   0  0  0  0  0  0  0  0  0  0  0  0
   -1.0083   -2.1542    0.0000 C   0  0  0  0  0  0  0  0  0  0  0  0
   -0.2958   -0.9167    0.0000 C   0  0  0  0  0  0  0  0  0  0  0  0
   -0.7333   -8.6625    0.0000 C   0  0  0  0  0  0  0  0  0  0  0  0
   -1.8083   -7.7167    0.0000 C   0  0  0  0  0  0  0  0  0  0  0  0
    2.9417   -3.2667    0.0000 C   0  0  0  0  0  0  0  0  0  0  0  0
    3.7667   -3.2625    0.0000 C   0  0  0  0  0  0  0  0  0  0  0  0
   -2.3458   -8.3292    0.0000 C   0  0  0  0  0  0  0  0  0  0  0  0
   -1.2833   -9.2792    0.0000 C   0  0  0  0  0  0  0  0  0  0  0  0
   -2.0958   -9.1125    0.0000 C   0  0  0  0  0  0  0  0  0  0  0  0
  2  4  2  0
  3  1  1  0
  4  1  1  0
  5 11  1  0
  6  3  2  0
  7  5  1  0
  8  7  1  0
  9 10  1  0
 10  5  2  0
 11 14  1  0
 12  3  1  0
 13  1  1  0
 14 17  1  0
 15  6  1  0
 16 11  1  0
 17 22  2  0
 18 13  1  0
 19  4  1  0
 20 12  2  0
 21 23  2  0
 22 24  1  0
 23 18  1  0
 24 18  2  0
 25 20  1  0
 26 15  1  0
 27 16  2  0
 28 16  1  0
 29 19  1  0
 30 29  1  0
 31 28  2  0
 32 27  1  0
 33 31  1  0
  2  6  1  0
 21 17  1  0
 15 25  2  0
  9  8  2  0
 32 33  2  0
M  END
>  <From>  (1) 
www.bindingDB.org

>  <BindingDB Reactant_set_id>  (1) 
50004234

>  <Ligand InChI>  (1) 
InChI=1S/C25H25N7O/c1-3-7-21-27-22-17(2)14-15-26-25(22)32(21)16-18-10-12-20(13-11-18)33-23(24-28-30-31-29-24)19-8-5-4-6-9-19/h4-6,8-15,23H,3,7,16H2,1-2H3,(H,28,29,30,31)

>  <Ligand InChI Key>  (1) 
RXTYRHGXOZLOIG-UHFFFAOYSA-N

>  <BindingDB MonomerID>  (1) 
50285350

>  <BindingDB Ligand Name>  (1) 
7-Methyl-3-{4-[phenyl-(1H-tetrazol-5-yl)-methoxy]-benzyl}-2-propyl-3H-imidazo[4,5-b]pyridine::CHEMBL37565

>  <Target Name>  (1) 
Type-1 angiotensin II receptor

>  <Target Source Organism According to Curator or DataSource>  (1) 
Oryctolagus cuniculus

>  <Ki (nM)>  (1) 


>  <IC50 (nM)>  (1) 
 77

>  <Kd (nM)>  (1) 


>  <EC50 (nM)>  (1) 


>  <kon (M-1-s-1)>  (1) 


>  <koff (s-1)>  (1) 


>  <pH>  (1) 


>  <Temp C>  (1) 


>  <Curation/DataSource>  (1) 
ChEMBL

>  <Article DOI>  (1) 
10.1016/0960-894X(94)00476-V

>  <BindingDB Entry DOI>  (1) 
10.7270/Q26H4HC9

>  <PMID>  (1) 


>  <PubChem AID>  (1) 


>  <Patent Number>  (1) 


>  <Authors>  (1) 
Fitch, KJ; Walsh, TF; Patchett, AA; Chang, RS; Siegl, PK; Faust, KA; Chen, TB; Lotti, VJ; Kivlighn, SD; Zingaro, GJ; Greenlee, WJ

>  <Institution>  (1) 
TBA

>  <Link to Ligand in BindingDB>  (1) 
http://www.bindingdb.org/bind/chemsearch/marvin/MolStructure.jsp?monomerid=50285350

>  <Link to Ligand-Target Pair in BindingDB>  (1) 
http://www.bindingdb.org/jsp/dbsearch/PrimarySearch_ki.jsp?energyterm=kJ/mole&tag=r21&monomerid=50285350&enzyme=Type-1+angiotensin+II+receptor&column=ki&startPg=0&Increment=50&submit=Search

>  <Ligand HET ID in PDB>  (1) 


>  <PDB ID(s) for Ligand-Target Complex>  (1) 


>  <PubChem CID of Ligand>  (1) 
44287133

>  <PubChem SID of Ligand>  (1) 
104126921

>  <ChEBI ID of Ligand>  (1) 


>  <ChEMBL ID of Ligand>  (1) 
CHEMBL37565

>  <DrugBank ID of Ligand>  (1) 


>  <IUPHAR_GRAC ID of Ligand>  (1) 


>  <KEGG ID of Ligand>  (1) 


>  <ZINC ID of Ligand>  (1) 
ZINC29333015

>  <Number of Protein Chains in Target (bigger than 1 implies a multichain complex)>  (1) 
1

>  <BindingDB Target Chain Sequence>  (1) 
MMLNSSTEDGIKRIQDDCPKAGRHNYIFVMIPTLYSIIFVVGIFGNSLAVIVIYFYMKLKTVASVFLLNLALADLCFLLTLPLWAVYTAMEYRWPFGNYLCKIASASVSFNLYASVFLLTCLSIDRYLAIVHPMKSRLRRTMLVAKVTCIIIWLLAGLASLPAIIHRNVFFIENTNITVCAFHYESQNSTLPIGLGLTKNILGFLFPFLIILTSYTLIWKALKKAYEIQKNKPRNDDIFKIIMAIVLFFFFSWVPHQIFTFLDVLIQLGVIHDCRIADIVDTAMPITICIAYFNNCLNPLFYGFLGKKFKKYFLQLLKYIPPKAKSHSNLSTKMSTLSYRPSDNVSSSSKKPVPCFEVE

>  <PDB ID(s) of Target Chain>  (1) 
6DO1,6OS0,6OS1,6OS2

>  <UniProt (SwissProt) Recommended Name of Target Chain>  (1) 
Type-1 angiotensin II receptor

>  <UniProt (SwissProt) Entry Name of Target Chain>  (1) 
AGTR1_RABIT

>  <UniProt (SwissProt) Primary ID of Target Chain>  (1) 
P34976

>  <UniProt (SwissProt) Secondary ID(s) of Target Chain>  (1) 


>  <UniProt (SwissProt) Alternative ID(s) of Target Chain>  (1) 


>  <UniProt (TrEMBL) Submitted Name of Target Chain>  (1) 


>  <UniProt (TrEMBL) Entry Name of Target Chain>  (1) 


>  <UniProt (TrEMBL) Primary ID of Target Chain>  (1) 


>  <UniProt (TrEMBL) Secondary ID(s) of Target Chain>  (1) 


>  <UniProt (TrEMBL) Alternative ID(s) of Target Chain>  (1) 


$$$$
