
     RDKit          2D

 41 45  0  0  0  0  0  0  0  0999 V2000
    0.5021  -15.9352    0.0000 C   0  0  0  0  0  0  0  0  0  0  0  0
    0.5010  -16.7547    0.0000 C   0  0  0  0  0  0  0  0  0  0  0  0
    1.2090  -17.1637    0.0000 C   0  0  0  0  0  0  0  0  0  0  0  0
    1.9187  -16.7543    0.0000 C   0  0  0  0  0  0  0  0  0  0  0  0
    1.9158  -15.9316    0.0000 C   0  0  0  0  0  0  0  0  0  0  0  0
    1.2072  -15.5263    0.0000 C   0  0  0  0  0  0  0  0  0  0  0  0
    2.6270  -17.1617    0.0000 N   0  0  0  0  0  0  0  0  0  0  0  0
    3.3341  -16.7520    0.0000 C   0  0  0  0  0  0  0  0  0  0  0  0
    4.0424  -17.1595    0.0000 C   0  0  0  0  0  0  0  0  0  0  0  0
    3.3328  -15.9348    0.0000 O   0  0  0  0  0  0  0  0  0  0  0  0
    4.0391  -17.9752    0.0000 C   0  0  0  0  0  0  0  0  0  0  0  0
    4.7466  -18.3826    0.0000 C   0  0  0  0  0  0  0  0  0  0  0  0
    5.4546  -17.9728    0.0000 C   0  0  0  0  0  0  0  0  0  0  0  0
    5.4507  -17.1514    0.0000 C   0  0  0  0  0  0  0  0  0  0  0  0
    4.7426  -16.7477    0.0000 C   0  0  0  0  0  0  0  0  0  0  0  0
   -0.2070  -15.5268    0.0000 C   0  0  0  0  0  0  0  0  0  0  0  0
   -0.2068  -14.7096    0.0000 N   0  0  0  0  0  0  0  0  0  0  0  0
    0.4609  -14.2303    0.0000 C   0  0  0  0  0  0  0  0  0  0  0  0
    0.2082  -13.4532    0.0000 N   0  0  0  0  0  0  0  0  0  0  0  0
   -0.6126  -13.4534    0.0000 N   0  0  0  0  0  0  0  0  0  0  0  0
   -0.8639  -14.2306    0.0000 C   0  0  0  0  0  0  0  0  0  0  0  0
   -1.6465  -14.4822    0.0000 C   0  0  0  0  0  0  0  0  0  0  0  0
   -1.8141  -15.2813    0.0000 C   0  0  0  0  0  0  0  0  0  0  0  0
   -1.2073  -15.8289    0.0000 C   0  0  0  0  0  0  0  0  0  0  0  0
    4.7320  -15.9295    0.0000 C   0  0  0  0  0  0  0  0  0  0  0  0
    1.2375  -14.4847    0.0000 S   0  0  0  0  0  0  0  0  0  0  0  0
    1.8461  -13.9394    0.0000 C   0  0  0  0  0  0  0  0  0  0  0  0
    5.3840  -15.4392    0.0000 N   0  0  0  0  0  0  0  0  0  0  0  0
    5.1210  -14.6644    0.0000 N   0  0  0  0  0  0  0  0  0  0  0  0
    4.3028  -14.6750    0.0000 N   0  0  0  0  0  0  0  0  0  0  0  0
    4.0602  -15.4565    0.0000 N   0  0  0  0  0  0  0  0  0  0  0  0
    1.6782  -13.1396    0.0000 C   0  0  0  0  0  0  0  0  0  0  0  0
    2.2891  -12.5993    0.0000 C   0  0  0  0  0  0  0  0  0  0  0  0
    2.1216  -11.8002    0.0000 C   0  0  0  0  0  0  0  0  0  0  0  0
    1.3444  -11.5451    0.0000 C   0  0  0  0  0  0  0  0  0  0  0  0
    0.7343  -12.0952    0.0000 C   0  0  0  0  0  0  0  0  0  0  0  0
    0.9049  -12.8923    0.0000 C   0  0  0  0  0  0  0  0  0  0  0  0
   -1.3749  -16.6280    0.0000 C   0  0  0  0  0  0  0  0  0  0  0  0
    3.0668  -12.8547    0.0000 N   0  0  0  0  0  0  0  0  0  0  0  0
    3.6773  -12.3115    0.0000 O   0  0  0  0  0  0  0  0  0  0  0  0
    3.2320  -13.6550    0.0000 O   0  0  0  0  0  0  0  0  0  0  0  0
  1  2  2  0
  2  3  1  0
  3  4  2  0
  4  5  1  0
  5  6  2  0
  6  1  1  0
  4  7  1  0
  7  8  1  0
  8  9  1  0
  8 10  2  0
  9 11  2  0
 11 12  1  0
 12 13  2  0
 13 14  1  0
 14 15  2  0
 15  9  1  0
  1 16  1  0
 16 17  1  0
 17 18  1  0
 18 19  2  0
 19 20  1  0
 20 21  2  0
 21 17  1  0
 21 22  1  0
 22 23  1  0
 23 24  1  0
 15 25  1  0
 18 26  1  0
 26 27  1  0
 25 28  2  0
 28 29  1  0
 29 30  2  0
 30 31  1  0
 31 25  1  0
 27 32  1  0
 32 33  2  0
 33 34  1  0
 34 35  2  0
 35 36  1  0
 36 37  2  0
 37 32  1  0
 24 38  1  0
 39 40  2  0
 39 41  1  0
 33 39  1  0
M  CHG  2  39   1  41  -1
M  END
>  <From>  (1) 
www.bindingDB.org

>  <BindingDB Reactant_set_id>  (1) 
51183532

>  <Ligand InChI>  (1) 
InChI=1S/C28H27N9O3S/c1-2-3-12-25-30-33-28(41-18-20-8-4-7-11-24(20)37(39)40)36(25)17-19-13-15-21(16-14-19)29-27(38)23-10-6-5-9-22(23)26-31-34-35-32-26/h4-11,13-16H,2-3,12,17-18H2,1H3,(H,29,38)(H,31,32,34,35)

>  <Ligand InChI Key>  (1) 
IJEBBPAASLZULC-UHFFFAOYSA-N

>  <BindingDB MonomerID>  (1) 
50486743

>  <BindingDB Ligand Name>  (1) 
CHEMBL2237594

>  <Target Name>  (1) 
Type-1 angiotensin II receptor

>  <Target Source Organism According to Curator or DataSource>  (1) 
Oryctolagus cuniculus

>  <Ki (nM)>  (1) 


>  <IC50 (nM)>  (1) 
 130

>  <Kd (nM)>  (1) 


>  <EC50 (nM)>  (1) 


>  <kon (M-1-s-1)>  (1) 


>  <koff (s-1)>  (1) 


>  <pH>  (1) 


>  <Temp C>  (1) 


>  <Curation/DataSource>  (1) 
ChEMBL

>  <Article DOI>  (1) 
10.1007/s00044-011-9756-4

>  <BindingDB Entry DOI>  (1) 
10.7270/Q2833VXQ

>  <PMID>  (1) 


>  <PubChem AID>  (1) 


>  <Patent Number>  (1) 


>  <Authors>  (1) 
n/a

>  <Institution>  (1) 
n/a

>  <Link to Ligand in BindingDB>  (1) 
http://www.bindingdb.org/bind/chemsearch/marvin/MolStructure.jsp?monomerid=50486743

>  <Link to Ligand-Target Pair in BindingDB>  (1) 
http://www.bindingdb.org/jsp/dbsearch/PrimarySearch_ki.jsp?energyterm=kJ/mole&tag=r21&monomerid=50486743&enzyme=Type-1+angiotensin+II+receptor&column=ki&startPg=0&Increment=50&submit=Search

>  <Ligand HET ID in PDB>  (1) 


>  <PDB ID(s) for Ligand-Target Complex>  (1) 


>  <PubChem CID of Ligand>  (1) 
76322690

>  <PubChem SID of Ligand>  (1) 
433954008

>  <ChEBI ID of Ligand>  (1) 


>  <ChEMBL ID of Ligand>  (1) 


>  <DrugBank ID of Ligand>  (1) 


>  <IUPHAR_GRAC ID of Ligand>  (1) 


>  <KEGG ID of Ligand>  (1) 


>  <ZINC ID of Ligand>  (1) 


>  <Number of Protein Chains in Target (bigger than 1 implies a multichain complex)>  (1) 
1

>  <BindingDB Target Chain Sequence>  (1) 
MMLNSSTEDGIKRIQDDCPKAGRHNYIFVMIPTLYSIIFVVGIFGNSLAVIVIYFYMKLKTVASVFLLNLALADLCFLLTLPLWAVYTAMEYRWPFGNYLCKIASASVSFNLYASVFLLTCLSIDRYLAIVHPMKSRLRRTMLVAKVTCIIIWLLAGLASLPAIIHRNVFFIENTNITVCAFHYESQNSTLPIGLGLTKNILGFLFPFLIILTSYTLIWKALKKAYEIQKNKPRNDDIFKIIMAIVLFFFFSWVPHQIFTFLDVLIQLGVIHDCRIADIVDTAMPITICIAYFNNCLNPLFYGFLGKKFKKYFLQLLKYIPPKAKSHSNLSTKMSTLSYRPSDNVSSSSKKPVPCFEVE

>  <PDB ID(s) of Target Chain>  (1) 
6DO1,6OS0,6OS1,6OS2

>  <UniProt (SwissProt) Recommended Name of Target Chain>  (1) 
Type-1 angiotensin II receptor

>  <UniProt (SwissProt) Entry Name of Target Chain>  (1) 
AGTR1_RABIT

>  <UniProt (SwissProt) Primary ID of Target Chain>  (1) 
P34976

>  <UniProt (SwissProt) Secondary ID(s) of Target Chain>  (1) 


>  <UniProt (SwissProt) Alternative ID(s) of Target Chain>  (1) 


>  <UniProt (TrEMBL) Submitted Name of Target Chain>  (1) 


>  <UniProt (TrEMBL) Entry Name of Target Chain>  (1) 


>  <UniProt (TrEMBL) Primary ID of Target Chain>  (1) 


>  <UniProt (TrEMBL) Secondary ID(s) of Target Chain>  (1) 


>  <UniProt (TrEMBL) Alternative ID(s) of Target Chain>  (1) 


$$$$
