
     RDKit          2D

 43 49  0  0  0  0  0  0  0  0999 V2000
    3.5270   -3.3186    0.0000 N   0  0  0  0  0  0  0  0  0  0  0  0
    3.0392   -2.6515    0.0000 C   0  0  0  0  0  0  0  0  0  0  0  0
    3.5270   -1.9803    0.0000 N   0  0  0  0  0  0  0  0  0  0  0  0
    7.1541   -4.7319    0.0000 N   0  0  0  0  0  0  0  0  0  0  0  0
    6.4454   -4.3150    0.0000 N   0  0  0  0  0  0  0  0  0  0  0  0
    4.3108   -3.0685    0.0000 C   0  0  0  0  0  0  0  0  0  0  0  0
    4.2524   -7.5626    0.0000 C   0  0  0  0  0  0  0  0  0  0  0  0
    3.6604   -6.9957    0.0000 N   0  0  0  0  0  0  0  0  0  0  0  0
    2.9267   -7.3750    0.0000 N   0  0  0  0  0  0  0  0  0  0  0  0
    7.1416   -5.5574    0.0000 C   0  0  0  0  0  0  0  0  0  0  0  0
    3.8855   -8.3090    0.0000 N   0  0  0  0  0  0  0  0  0  0  0  0
    4.3150   -2.2430    0.0000 C   0  0  0  0  0  0  0  0  0  0  0  0
    3.0643   -8.1880    0.0000 N   0  0  0  0  0  0  0  0  0  0  0  0
    7.8420   -5.9867    0.0000 C   0  0  0  0  0  0  0  0  0  0  0  0
    2.2180   -2.6432    0.0000 C   0  0  0  0  0  0  0  0  0  0  0  0
    7.8670   -4.3317    0.0000 C   0  0  0  0  0  0  0  0  0  0  0  0
    6.4579   -3.4812    0.0000 C   0  0  0  0  0  0  0  0  0  0  0  0
    5.0654   -7.4251    0.0000 C   0  0  0  0  0  0  0  0  0  0  0  0
    5.0279   -3.4812    0.0000 C   0  0  0  0  0  0  0  0  0  0  0  0
    5.3656   -6.6580    0.0000 C   0  0  0  0  0  0  0  0  0  0  0  0
    5.7408   -3.0685    0.0000 C   0  0  0  0  0  0  0  0  0  0  0  0
    1.5092   -2.2305    0.0000 C   0  0  0  0  0  0  0  0  0  0  0  0
    1.5092   -3.0560    0.0000 C   0  0  0  0  0  0  0  0  0  0  0  0
    3.2644   -4.1024    0.0000 C   0  0  0  0  0  0  0  0  0  0  0  0
    7.8295   -6.8122    0.0000 N   0  0  0  0  0  0  0  0  0  0  0  0
    4.8486   -6.0118    0.0000 C   0  0  0  0  0  0  0  0  0  0  0  0
    8.5674   -5.5824    0.0000 O   0  0  0  0  0  0  0  0  0  0  0  0
    7.8795   -3.5062    0.0000 C   0  0  0  0  0  0  0  0  0  0  0  0
    5.0279   -1.8303    0.0000 C   0  0  0  0  0  0  0  0  0  0  0  0
    8.5799   -4.7569    0.0000 O   0  0  0  0  0  0  0  0  0  0  0  0
    7.1791   -3.0810    0.0000 C   0  0  0  0  0  0  0  0  0  0  0  0
    5.7408   -2.2430    0.0000 C   0  0  0  0  0  0  0  0  0  0  0  0
    5.1488   -5.2447    0.0000 C   0  0  0  0  0  0  0  0  0  0  0  0
    4.0273   -6.1368    0.0000 C   0  0  0  0  0  0  0  0  0  0  0  0
    3.8147   -4.7194    0.0000 C   0  0  0  0  0  0  0  0  0  0  0  0
    3.5145   -5.4907    0.0000 C   0  0  0  0  0  0  0  0  0  0  0  0
    4.6360   -4.5943    0.0000 C   0  0  0  0  0  0  0  0  0  0  0  0
    5.5782   -8.0713    0.0000 C   0  0  0  0  0  0  0  0  0  0  0  0
    6.1828   -6.5330    0.0000 C   0  0  0  0  0  0  0  0  0  0  0  0
    8.5424   -7.2375    0.0000 C   0  0  0  0  0  0  0  0  0  0  0  0
    7.1166   -7.2124    0.0000 C   0  0  0  0  0  0  0  0  0  0  0  0
    6.6955   -7.1749    0.0000 C   0  0  0  0  0  0  0  0  0  0  0  0
    6.4037   -7.9379    0.0000 C   0  0  0  0  0  0  0  0  0  0  0  0
  2  1  1  0
  3  2  2  0
  4  5  1  0
  5 17  2  0
  6  1  1  0
  7 18  1  0
  8  7  1  0
  9  8  2  0
 10  4  1  0
 11  7  2  0
 12  6  2  0
 13 11  1  0
 14 10  1  0
 15  2  1  0
 16 28  1  0
 17 21  1  0
 18 20  1  0
 19  6  1  0
 20 26  1  0
 21 19  2  0
 22 15  1  0
 23 15  1  0
 24  1  1  0
 25 14  1  0
 26 33  2  0
 27 14  2  0
 28 31  1  0
 29 12  1  0
 30 16  2  0
 31 17  1  0
 32 21  1  0
 33 37  1  0
 34 36  2  0
 35 24  1  0
 36 35  1  0
 37 35  2  0
 38 18  2  0
 39 20  2  0
 40 25  1  0
 41 25  1  0
 42 39  1  0
 43 42  2  0
  3 12  1  0
 23 22  1  0
 26 34  1  0
 29 32  2  0
  4 16  1  0
 38 43  1  0
  9 13  1  0
M  CHG  1  13  -1
M  END
>  <From>  (1) 
www.bindingDB.org

>  <BindingDB Reactant_set_id>  (1) 
50983610

>  <Ligand InChI>  (1) 
InChI=1S/C32H30N9O2/c1-39(2)30(43)19-41-29(42)16-15-26(36-41)23-13-14-27-28(17-23)40(32(33-27)22-11-12-22)18-20-7-9-21(10-8-20)24-5-3-4-6-25(24)31-34-37-38-35-31/h3-10,13-14,17,22H,11-12,15-16,18-19H2,1-2H3/q-1

>  <Ligand InChI Key>  (1) 
YMMWNOSCBLJNNW-UHFFFAOYSA-N

>  <BindingDB MonomerID>  (1) 
50403247

>  <BindingDB Ligand Name>  (1) 
CHEMBL2079791

>  <Target Name>  (1) 
Type-1 angiotensin II receptor

>  <Target Source Organism According to Curator or DataSource>  (1) 
Oryctolagus cuniculus

>  <Ki (nM)>  (1) 


>  <IC50 (nM)>  (1) 
 2

>  <Kd (nM)>  (1) 


>  <EC50 (nM)>  (1) 


>  <kon (M-1-s-1)>  (1) 


>  <koff (s-1)>  (1) 


>  <pH>  (1) 


>  <Temp C>  (1) 


>  <Curation/DataSource>  (1) 
ChEMBL

>  <Article DOI>  (1) 
10.1016/S0960-894X(01)80348-6

>  <BindingDB Entry DOI>  (1) 
10.7270/Q2G44QRD

>  <PMID>  (1) 


>  <PubChem AID>  (1) 


>  <Patent Number>  (1) 


>  <Authors>  (1) 
Dorsch, D; Mederski, WW; Beier, N; Lues, I; Minck, K; Schelling, P

>  <Institution>  (1) 
TBA

>  <Link to Ligand in BindingDB>  (1) 
http://www.bindingdb.org/bind/chemsearch/marvin/MolStructure.jsp?monomerid=50403247

>  <Link to Ligand-Target Pair in BindingDB>  (1) 
http://www.bindingdb.org/jsp/dbsearch/PrimarySearch_ki.jsp?energyterm=kJ/mole&tag=r21&monomerid=50403247&enzyme=Type-1+angiotensin+II+receptor&column=ki&startPg=0&Increment=50&submit=Search

>  <Ligand HET ID in PDB>  (1) 


>  <PDB ID(s) for Ligand-Target Complex>  (1) 


>  <PubChem CID of Ligand>  (1) 
91928456

>  <PubChem SID of Ligand>  (1) 
163352271

>  <ChEBI ID of Ligand>  (1) 


>  <ChEMBL ID of Ligand>  (1) 
CHEMBL2079791

>  <DrugBank ID of Ligand>  (1) 


>  <IUPHAR_GRAC ID of Ligand>  (1) 


>  <KEGG ID of Ligand>  (1) 


>  <ZINC ID of Ligand>  (1) 
ZINC28755519

>  <Number of Protein Chains in Target (bigger than 1 implies a multichain complex)>  (1) 
1

>  <BindingDB Target Chain Sequence>  (1) 
MMLNSSTEDGIKRIQDDCPKAGRHNYIFVMIPTLYSIIFVVGIFGNSLAVIVIYFYMKLKTVASVFLLNLALADLCFLLTLPLWAVYTAMEYRWPFGNYLCKIASASVSFNLYASVFLLTCLSIDRYLAIVHPMKSRLRRTMLVAKVTCIIIWLLAGLASLPAIIHRNVFFIENTNITVCAFHYESQNSTLPIGLGLTKNILGFLFPFLIILTSYTLIWKALKKAYEIQKNKPRNDDIFKIIMAIVLFFFFSWVPHQIFTFLDVLIQLGVIHDCRIADIVDTAMPITICIAYFNNCLNPLFYGFLGKKFKKYFLQLLKYIPPKAKSHSNLSTKMSTLSYRPSDNVSSSSKKPVPCFEVE

>  <PDB ID(s) of Target Chain>  (1) 
6DO1,6OS0,6OS1,6OS2

>  <UniProt (SwissProt) Recommended Name of Target Chain>  (1) 
Type-1 angiotensin II receptor

>  <UniProt (SwissProt) Entry Name of Target Chain>  (1) 
AGTR1_RABIT

>  <UniProt (SwissProt) Primary ID of Target Chain>  (1) 
P34976

>  <UniProt (SwissProt) Secondary ID(s) of Target Chain>  (1) 


>  <UniProt (SwissProt) Alternative ID(s) of Target Chain>  (1) 


>  <UniProt (TrEMBL) Submitted Name of Target Chain>  (1) 


>  <UniProt (TrEMBL) Entry Name of Target Chain>  (1) 


>  <UniProt (TrEMBL) Primary ID of Target Chain>  (1) 


>  <UniProt (TrEMBL) Secondary ID(s) of Target Chain>  (1) 


>  <UniProt (TrEMBL) Alternative ID(s) of Target Chain>  (1) 


$$$$
