
     RDKit          2D

 37 41  0  0  0  0  0  0  0  0999 V2000
   -0.3036    2.8703    0.0000 C   0  0  0  0  0  0  0  0  0  0  0  0
   -1.0942    2.6125    0.0000 N   0  0  0  0  0  0  0  0  0  0  0  0
   -0.3036    3.6953    0.0000 C   0  0  0  0  0  0  0  0  0  0  0  0
    0.4011    2.4578    0.0000 C   0  0  0  0  0  0  0  0  0  0  0  0
   -1.0942    3.9531    0.0000 N   0  0  0  0  0  0  0  0  0  0  0  0
   -1.5812    3.2942    0.0000 C   0  0  0  0  0  0  0  0  0  0  0  0
    1.1172    2.8703    0.0000 N   0  0  0  0  0  0  0  0  0  0  0  0
   -3.6208   -0.8308    0.0000 C   0  0  0  0  0  0  0  0  0  0  0  0
   -4.6406    0.0458    0.0000 N   0  0  0  0  0  0  0  0  0  0  0  0
   -3.8156   -0.0230    0.0000 N   0  0  0  0  0  0  0  0  0  0  0  0
   -4.9614   -0.7219    0.0000 N   0  0  0  0  0  0  0  0  0  0  0  0
    0.4011    4.1078    0.0000 C   0  0  0  0  0  0  0  0  0  0  0  0
   -4.3312   -1.2605    0.0000 N   0  0  0  0  0  0  0  0  0  0  0  0
    1.1172    3.6953    0.0000 C   0  0  0  0  0  0  0  0  0  0  0  0
   -2.9848   -1.3464    0.0000 C   0  0  0  0  0  0  0  0  0  0  0  0
   -2.2114   -1.0542    0.0000 C   0  0  0  0  0  0  0  0  0  0  0  0
   -1.8161    2.2114    0.0000 C   0  0  0  0  0  0  0  0  0  0  0  0
    1.8276    2.4520    0.0000 C   0  0  0  0  0  0  0  0  0  0  0  0
    2.5495    2.8645    0.0000 C   0  0  0  0  0  0  0  0  0  0  0  0
    0.4011    1.6328    0.0000 O   0  0  0  0  0  0  0  0  0  0  0  0
   -2.0797   -0.2406    0.0000 C   0  0  0  0  0  0  0  0  0  0  0  0
    2.5495    3.6895    0.0000 O   0  0  0  0  0  0  0  0  0  0  0  0
   -2.7270    0.2864    0.0000 C   0  0  0  0  0  0  0  0  0  0  0  0
   -1.3062    0.0630    0.0000 C   0  0  0  0  0  0  0  0  0  0  0  0
   -1.8161    1.3864    0.0000 C   0  0  0  0  0  0  0  0  0  0  0  0
   -2.4062    3.2942    0.0000 C   0  0  0  0  0  0  0  0  0  0  0  0
   -1.1802    0.8708    0.0000 C   0  0  0  0  0  0  0  0  0  0  0  0
   -2.5895    1.0942    0.0000 C   0  0  0  0  0  0  0  0  0  0  0  0
    3.2542    2.4520    0.0000 O   0  0  0  0  0  0  0  0  0  0  0  0
   -3.1109   -2.1656    0.0000 C   0  0  0  0  0  0  0  0  0  0  0  0
   -1.5755   -1.5698    0.0000 C   0  0  0  0  0  0  0  0  0  0  0  0
    3.2542    1.6270    0.0000 C   0  0  0  0  0  0  0  0  0  0  0  0
   -2.8187    3.9989    0.0000 C   0  0  0  0  0  0  0  0  0  0  0  0
   -3.6437    3.9989    0.0000 C   0  0  0  0  0  0  0  0  0  0  0  0
   -2.4692   -2.6870    0.0000 C   0  0  0  0  0  0  0  0  0  0  0  0
   -1.6958   -2.3891    0.0000 C   0  0  0  0  0  0  0  0  0  0  0  0
   -4.0562    4.7094    0.0000 C   0  0  0  0  0  0  0  0  0  0  0  0
  2  1  1  0
  3  1  2  0
  4  1  1  0
  5  3  1  0
  6  2  1  0
  7  4  1  0
  8 15  1  0
  9 10  1  0
 10  8  1  0
 11 13  1  0
 12  3  1  0
 13  8  2  0
 14  7  1  0
 15 16  1  0
 16 21  1  0
 17  2  1  0
 18  7  1  0
 19 18  1  0
 20  4  2  0
 21 23  2  0
 22 19  2  0
 23 28  1  0
 24 27  2  0
 25 17  1  0
 26  6  1  0
 27 25  1  0
 28 25  2  0
 29 19  1  0
 30 15  2  0
 31 16  2  0
 32 29  1  0
 33 26  1  0
 34 33  1  0
 35 36  2  0
 36 31  1  0
 37 34  1  0
  6  5  2  0
 14 12  2  0
 24 21  1  0
 35 30  1  0
 11  9  2  0
M  END
>  <From>  (1) 
www.bindingDB.org

>  <BindingDB Reactant_set_id>  (1) 
50066290

>  <Ligand InChI>  (1) 
InChI=1S/C27H27N7O3/c1-3-4-9-23-28-22-14-15-33(17-24(35)37-2)27(36)25(22)34(23)16-18-10-12-19(13-11-18)20-7-5-6-8-21(20)26-29-31-32-30-26/h5-8,10-15H,3-4,9,16-17H2,1-2H3,(H,29,30,31,32)

>  <Ligand InChI Key>  (1) 
UHYDTDXHNHZWIN-UHFFFAOYSA-N

>  <BindingDB MonomerID>  (1) 
50041688

>  <BindingDB Ligand Name>  (1) 
CHEMBL43500::{2-Butyl-4-oxo-3-[2'-(1H-tetrazol-5-yl)-biphenyl-4-ylmethyl]-3,4-dihydro-imidazo[4,5-c]pyridin-5-yl}-acetic acid methyl ester

>  <Target Name>  (1) 
Type-1 angiotensin II receptor B

>  <Target Source Organism According to Curator or DataSource>  (1) 
Rattus

>  <Ki (nM)>  (1) 


>  <IC50 (nM)>  (1) 
 1.3

>  <Kd (nM)>  (1) 


>  <EC50 (nM)>  (1) 


>  <kon (M-1-s-1)>  (1) 


>  <koff (s-1)>  (1) 


>  <pH>  (1) 


>  <Temp C>  (1) 


>  <Curation/DataSource>  (1) 
ChEMBL

>  <Article DOI>  (1) 
10.1021/jm00037a014

>  <BindingDB Entry DOI>  (1) 
10.7270/Q2RR1X9M

>  <PMID>  (1) 
8201597

>  <PubChem AID>  (1) 


>  <Patent Number>  (1) 


>  <Authors>  (1) 
Mederski, WW; Dorsch, D; Bokel, HH; Beier, N; Lues, I; Schelling, P

>  <Institution>  (1) 
E. Merck

>  <Link to Ligand in BindingDB>  (1) 
http://www.bindingdb.org/bind/chemsearch/marvin/MolStructure.jsp?monomerid=50041688

>  <Link to Ligand-Target Pair in BindingDB>  (1) 
http://www.bindingdb.org/jsp/dbsearch/PrimarySearch_ki.jsp?energyterm=kJ/mole&tag=r21&monomerid=50041688&enzyme=Type-1+angiotensin+II+receptor+B&column=ki&startPg=0&Increment=50&submit=Search

>  <Ligand HET ID in PDB>  (1) 


>  <PDB ID(s) for Ligand-Target Complex>  (1) 


>  <PubChem CID of Ligand>  (1) 
11755602

>  <PubChem SID of Ligand>  (1) 
103973378

>  <ChEBI ID of Ligand>  (1) 


>  <ChEMBL ID of Ligand>  (1) 
CHEMBL43500

>  <DrugBank ID of Ligand>  (1) 


>  <IUPHAR_GRAC ID of Ligand>  (1) 


>  <KEGG ID of Ligand>  (1) 


>  <ZINC ID of Ligand>  (1) 
ZINC13736756

>  <Number of Protein Chains in Target (bigger than 1 implies a multichain complex)>  (1) 
1

>  <BindingDB Target Chain Sequence>  (1) 
MTLNSSTEDGIKRIQDDCPKAGRHNYIFVMIPTLYSIIFVVGIFGNSLVVIVIYFYMKLKTVASVFLLNLALADLCFLLTLPLWAVYTAMEYRWPFGNHLCKIASASVSFNLYASVFLLTCLSIDRYLAIVHPMKSRLRRTMLVAKVTCIIIWLMAGLASLPAVIYRNVYFIENTNITVCAFHYESQNSTLPIGLGLTKNILGFVFPFLIILTSYTLIWKALKKAYKIQKNTPRNDDIFRIIMAIVLFFFFSWVPHQIFTFLDVLIQLGIIRDCEIADIVDTAMPITICIAYFNNCLNPLFYGFLGKKFKKYFLQLLKYIPPTAKSHAGLSTKMSTLSYRPSDNMSSSAKKSASFFEVE

>  <PDB ID(s) of Target Chain>  (1) 


>  <UniProt (SwissProt) Recommended Name of Target Chain>  (1) 
Type-1 angiotensin II receptor B

>  <UniProt (SwissProt) Entry Name of Target Chain>  (1) 
AGTRB_RAT

>  <UniProt (SwissProt) Primary ID of Target Chain>  (1) 
P29089

>  <UniProt (SwissProt) Secondary ID(s) of Target Chain>  (1) 


>  <UniProt (SwissProt) Alternative ID(s) of Target Chain>  (1) 


>  <UniProt (TrEMBL) Submitted Name of Target Chain>  (1) 


>  <UniProt (TrEMBL) Entry Name of Target Chain>  (1) 


>  <UniProt (TrEMBL) Primary ID of Target Chain>  (1) 


>  <UniProt (TrEMBL) Secondary ID(s) of Target Chain>  (1) 


>  <UniProt (TrEMBL) Alternative ID(s) of Target Chain>  (1) 


$$$$
