
     RDKit          2D

 50 54  0  0  0  0  0  0  0  0999 V2000
    1.5046   -0.1939    0.0000 N   0  0  0  0  0  0  0  0  0  0  0  0
    1.1000   -1.4667    0.0000 N   0  0  0  0  0  0  0  0  0  0  0  0
    4.6445   -2.6721    0.0000 S   0  0  0  0  0  0  0  0  0  0  0  0
    1.7617   -0.9778    0.0000 C   0  0  0  0  0  0  0  0  0  0  0  0
    0.6828   -0.2023    0.0000 N   0  0  0  0  0  0  0  0  0  0  0  0
    0.4341   -0.9778    0.0000 C   0  0  0  0  0  0  0  0  0  0  0  0
    4.6445   -1.8502    0.0000 N   0  0  0  0  0  0  0  0  0  0  0  0
    1.9767    0.4636    0.0000 C   0  0  0  0  0  0  0  0  0  0  0  0
    5.3525   -1.4414    0.0000 C   0  0  0  0  0  0  0  0  0  0  0  0
    4.6571   -3.4939    0.0000 C   0  0  0  0  0  0  0  0  0  0  0  0
    6.0732   -1.8502    0.0000 C   0  0  0  0  0  0  0  0  0  0  0  0
    3.9491   -3.9069    0.0000 C   0  0  0  0  0  0  0  0  0  0  0  0
    2.8069    0.3877    0.0000 C   0  0  0  0  0  0  0  0  0  0  0  0
    1.1000   -2.2801    0.0000 C   0  0  0  0  0  0  0  0  0  0  0  0
    3.8226   -2.6847    0.0000 O   0  0  0  0  0  0  0  0  0  0  0  0
    5.4747   -2.6721    0.0000 O   0  0  0  0  0  0  0  0  0  0  0  0
    2.5456   -1.2264    0.0000 O   0  0  0  0  0  0  0  0  0  0  0  0
    1.6479    1.2095    0.0000 C   0  0  0  0  0  0  0  0  0  0  0  0
    4.6023    1.6521    0.0000 C   0  0  0  0  0  0  0  0  0  0  0  0
    4.1134    0.9693    0.0000 N   0  0  0  0  0  0  0  0  0  0  0  0
    3.2410   -3.5066    0.0000 C   0  0  0  0  0  0  0  0  0  0  0  0
    6.7939   -1.4330    0.0000 C   0  0  0  0  0  0  0  0  0  0  0  0
    3.2790    1.0494    0.0000 C   0  0  0  0  0  0  0  0  0  0  0  0
    5.3483   -0.6195    0.0000 O   0  0  0  0  0  0  0  0  0  0  0  0
    4.2609    2.4107    0.0000 O   0  0  0  0  0  0  0  0  0  0  0  0
    2.1241    1.8797    0.0000 C   0  0  0  0  0  0  0  0  0  0  0  0
    3.2284   -2.6805    0.0000 C   0  0  0  0  0  0  0  0  0  0  0  0
    2.5330   -3.9195    0.0000 C   0  0  0  0  0  0  0  0  0  0  0  0
    1.8123   -2.6931    0.0000 C   0  0  0  0  0  0  0  0  0  0  0  0
    2.9460    1.8038    0.0000 C   0  0  0  0  0  0  0  0  0  0  0  0
    0.8134    1.2897    0.0000 Cl  0  0  0  0  0  0  0  0  0  0  0  0
    6.7939   -0.5985    0.0000 Cl  0  0  0  0  0  0  0  0  0  0  0  0
   -0.3498   -1.2391    0.0000 C   0  0  0  0  0  0  0  0  0  0  0  0
    2.5203   -2.2759    0.0000 C   0  0  0  0  0  0  0  0  0  0  0  0
    1.8123   -3.5149    0.0000 C   0  0  0  0  0  0  0  0  0  0  0  0
    6.0816   -2.6847    0.0000 C   0  0  0  0  0  0  0  0  0  0  0  0
    5.3736   -3.8985    0.0000 C   0  0  0  0  0  0  0  0  0  0  0  0
    3.9575   -4.7330    0.0000 C   0  0  0  0  0  0  0  0  0  0  0  0
    5.4284    1.5636    0.0000 C   0  0  0  0  0  0  0  0  0  0  0  0
    7.5146   -1.8460    0.0000 C   0  0  0  0  0  0  0  0  0  0  0  0
   -0.9693   -0.6870    0.0000 C   0  0  0  0  0  0  0  0  0  0  0  0
    5.9215    2.2463    0.0000 C   0  0  0  0  0  0  0  0  0  0  0  0
    6.7517    2.1705    0.0000 C   0  0  0  0  0  0  0  0  0  0  0  0
   -1.7448   -0.9483    0.0000 C   0  0  0  0  0  0  0  0  0  0  0  0
    6.8023   -3.1020    0.0000 C   0  0  0  0  0  0  0  0  0  0  0  0
    5.3778   -4.7203    0.0000 C   0  0  0  0  0  0  0  0  0  0  0  0
    4.6698   -5.1376    0.0000 C   0  0  0  0  0  0  0  0  0  0  0  0
   -2.3601   -0.4046    0.0000 C   0  0  0  0  0  0  0  0  0  0  0  0
    7.2364    2.8406    0.0000 C   0  0  0  0  0  0  0  0  0  0  0  0
    7.5272   -2.6847    0.0000 C   0  0  0  0  0  0  0  0  0  0  0  0
  2  4  1  0
  3 10  1  0
  4  1  1  0
  5  1  1  0
  6  5  2  0
  7  3  1  0
  8  1  1  0
  9  7  1  0
 10 12  1  0
 11  9  1  0
 12 21  1  0
 13  8  2  0
 14  2  1  0
 15  3  2  0
 16  3  2  0
 17  4  2  0
 18  8  1  0
 19 20  1  0
 20 23  1  0
 21 28  2  0
 22 11  2  0
 23 13  1  0
 24  9  2  0
 25 19  2  0
 26 18  2  0
 27 34  2  0
 28 35  1  0
 29 14  1  0
 30 26  1  0
 31 18  1  0
 32 22  1  0
 33  6  1  0
 34 29  1  0
 35 29  2  0
 36 11  1  0
 37 10  2  0
 38 12  2  0
 39 19  1  0
 40 22  1  0
 41 33  1  0
 42 39  1  0
 43 42  1  0
 44 41  1  0
 45 36  2  0
 46 47  2  0
 47 38  1  0
 48 44  1  0
 49 43  1  0
 50 45  1  0
  2  6  1  0
 30 23  2  0
 21 27  1  0
 37 46  1  0
 50 40  2  0
M  END
>  <From>  (1) 
www.bindingDB.org

>  <BindingDB Reactant_set_id>  (1) 
50470312

>  <Ligand InChI>  (1) 
InChI=1S/C37H37Cl2N5O5S/c1-3-5-15-34-41-44(32-23-27(21-22-31(32)39)40-35(45)16-6-4-2)37(47)43(34)24-25-17-19-26(20-18-25)28-11-8-10-14-33(28)50(48,49)42-36(46)29-12-7-9-13-30(29)38/h7-14,17-23H,3-6,15-16,24H2,1-2H3,(H,40,45)(H,42,46)

>  <Ligand InChI Key>  (1) 
GRNGGZASPSJYFR-UHFFFAOYSA-N

>  <BindingDB MonomerID>  (1) 
50035447

>  <BindingDB Ligand Name>  (1) 
CHEMBL96075::Pentanoic acid (3-{3-butyl-4-[2'-(2-chloro-benzoylsulfamoyl)-biphenyl-4-ylmethyl]-5-oxo-4,5-dihydro-[1,2,4]triazol-1-yl}-4-chloro-phenyl)-amide

>  <Target Name>  (1) 
Type-1 angiotensin II receptor

>  <Target Source Organism According to Curator or DataSource>  (1) 
Oryctolagus cuniculus

>  <Ki (nM)>  (1) 


>  <IC50 (nM)>  (1) 
 0.160000

>  <Kd (nM)>  (1) 


>  <EC50 (nM)>  (1) 


>  <kon (M-1-s-1)>  (1) 


>  <koff (s-1)>  (1) 


>  <pH>  (1) 


>  <Temp C>  (1) 


>  <Curation/DataSource>  (1) 
ChEMBL

>  <Article DOI>  (1) 
10.1016/S0960-894X(01)80595-3

>  <BindingDB Entry DOI>  (1) 
10.7270/Q2WS8T68

>  <PMID>  (1) 


>  <PubChem AID>  (1) 


>  <Patent Number>  (1) 


>  <Authors>  (1) 
Chang, LL; Ashton, WT; Flanagan, KL; Rivero, RA; Chen, TB; O'Malley, SS; Zingaro, GJ; Kivlighn, SD; Siegl, PK; Lotti, VJ; Chang, RS; Greenlee, WJ

>  <Institution>  (1) 
TBA

>  <Link to Ligand in BindingDB>  (1) 
http://www.bindingdb.org/bind/chemsearch/marvin/MolStructure.jsp?monomerid=50035447

>  <Link to Ligand-Target Pair in BindingDB>  (1) 
http://www.bindingdb.org/jsp/dbsearch/PrimarySearch_ki.jsp?energyterm=kJ/mole&tag=r21&monomerid=50035447&enzyme=Type-1+angiotensin+II+receptor&column=ki&startPg=0&Increment=50&submit=Search

>  <Ligand HET ID in PDB>  (1) 


>  <PDB ID(s) for Ligand-Target Complex>  (1) 


>  <PubChem CID of Ligand>  (1) 
10078663

>  <PubChem SID of Ligand>  (1) 
103943466

>  <ChEBI ID of Ligand>  (1) 


>  <ChEMBL ID of Ligand>  (1) 
CHEMBL96075

>  <DrugBank ID of Ligand>  (1) 


>  <IUPHAR_GRAC ID of Ligand>  (1) 


>  <KEGG ID of Ligand>  (1) 


>  <ZINC ID of Ligand>  (1) 
ZINC26668087

>  <Number of Protein Chains in Target (bigger than 1 implies a multichain complex)>  (1) 
1

>  <BindingDB Target Chain Sequence>  (1) 
MMLNSSTEDGIKRIQDDCPKAGRHNYIFVMIPTLYSIIFVVGIFGNSLAVIVIYFYMKLKTVASVFLLNLALADLCFLLTLPLWAVYTAMEYRWPFGNYLCKIASASVSFNLYASVFLLTCLSIDRYLAIVHPMKSRLRRTMLVAKVTCIIIWLLAGLASLPAIIHRNVFFIENTNITVCAFHYESQNSTLPIGLGLTKNILGFLFPFLIILTSYTLIWKALKKAYEIQKNKPRNDDIFKIIMAIVLFFFFSWVPHQIFTFLDVLIQLGVIHDCRIADIVDTAMPITICIAYFNNCLNPLFYGFLGKKFKKYFLQLLKYIPPKAKSHSNLSTKMSTLSYRPSDNVSSSSKKPVPCFEVE

>  <PDB ID(s) of Target Chain>  (1) 
6DO1,6OS0,6OS1,6OS2

>  <UniProt (SwissProt) Recommended Name of Target Chain>  (1) 
Type-1 angiotensin II receptor

>  <UniProt (SwissProt) Entry Name of Target Chain>  (1) 
AGTR1_RABIT

>  <UniProt (SwissProt) Primary ID of Target Chain>  (1) 
P34976

>  <UniProt (SwissProt) Secondary ID(s) of Target Chain>  (1) 


>  <UniProt (SwissProt) Alternative ID(s) of Target Chain>  (1) 


>  <UniProt (TrEMBL) Submitted Name of Target Chain>  (1) 


>  <UniProt (TrEMBL) Entry Name of Target Chain>  (1) 


>  <UniProt (TrEMBL) Primary ID of Target Chain>  (1) 


>  <UniProt (TrEMBL) Secondary ID(s) of Target Chain>  (1) 


>  <UniProt (TrEMBL) Alternative ID(s) of Target Chain>  (1) 


$$$$
