
     RDKit          2D

 48 53  0  0  0  0  0  0  0  0999 V2000
    7.7984   -7.5180    0.0000 N   0  0  0  0  0  0  0  0  0  0  0  0
    7.3865   -8.7939    0.0000 N   0  0  0  0  0  0  0  0  0  0  0  0
   10.9567  -10.0240    0.0000 S   0  0  0  0  0  0  0  0  0  0  0  0
    8.0559   -8.3076    0.0000 C   0  0  0  0  0  0  0  0  0  0  0  0
    6.9745   -7.5238    0.0000 N   0  0  0  0  0  0  0  0  0  0  0  0
   10.9395   -9.2001    0.0000 N   0  0  0  0  0  0  0  0  0  0  0  0
    6.7171   -8.3076    0.0000 C   0  0  0  0  0  0  0  0  0  0  0  0
   11.6432   -7.9529    0.0000 C   0  0  0  0  0  0  0  0  0  0  0  0
   11.6604   -8.7768    0.0000 C   0  0  0  0  0  0  0  0  0  0  0  0
    7.9529   -6.1163    0.0000 C   0  0  0  0  0  0  0  0  0  0  0  0
    8.2790   -6.8544    0.0000 C   0  0  0  0  0  0  0  0  0  0  0  0
   12.3127   -7.4665    0.0000 S   0  0  0  0  0  0  0  0  0  0  0  0
    7.1290   -6.0305    0.0000 C   0  0  0  0  0  0  0  0  0  0  0  0
   10.9567  -10.8365    0.0000 C   0  0  0  0  0  0  0  0  0  0  0  0
   10.9738   -7.4723    0.0000 C   0  0  0  0  0  0  0  0  0  0  0  0
   10.2358  -11.2599    0.0000 C   0  0  0  0  0  0  0  0  0  0  0  0
   12.0552   -6.6941    0.0000 C   0  0  0  0  0  0  0  0  0  0  0  0
    7.3865   -9.6178    0.0000 C   0  0  0  0  0  0  0  0  0  0  0  0
   11.2141   -6.6999    0.0000 C   0  0  0  0  0  0  0  0  0  0  0  0
   10.1328  -10.0240    0.0000 O   0  0  0  0  0  0  0  0  0  0  0  0
   11.7806  -10.0240    0.0000 O   0  0  0  0  0  0  0  0  0  0  0  0
    8.8454   -8.5536    0.0000 O   0  0  0  0  0  0  0  0  0  0  0  0
    9.5320  -10.8479    0.0000 C   0  0  0  0  0  0  0  0  0  0  0  0
   12.3641   -9.1887    0.0000 O   0  0  0  0  0  0  0  0  0  0  0  0
    6.6484   -5.3096    0.0000 F   0  0  0  0  0  0  0  0  0  0  0  0
    6.5111   -6.6426    0.0000 F   0  0  0  0  0  0  0  0  0  0  0  0
    6.3738   -5.9561    0.0000 F   0  0  0  0  0  0  0  0  0  0  0  0
    8.8111  -11.2599    0.0000 C   0  0  0  0  0  0  0  0  0  0  0  0
    9.5320  -10.0126    0.0000 C   0  0  0  0  0  0  0  0  0  0  0  0
    8.1074  -10.0240    0.0000 C   0  0  0  0  0  0  0  0  0  0  0  0
    5.9447   -8.5536    0.0000 C   0  0  0  0  0  0  0  0  0  0  0  0
    8.4335   -5.4469    0.0000 C   0  0  0  0  0  0  0  0  0  0  0  0
    8.8111   -9.6121    0.0000 C   0  0  0  0  0  0  0  0  0  0  0  0
    8.1074  -10.8479    0.0000 C   0  0  0  0  0  0  0  0  0  0  0  0
    9.1029   -6.9402    0.0000 C   0  0  0  0  0  0  0  0  0  0  0  0
   11.6604  -11.2485    0.0000 C   0  0  0  0  0  0  0  0  0  0  0  0
   10.2358  -12.0838    0.0000 C   0  0  0  0  0  0  0  0  0  0  0  0
   12.4671   -5.9618    0.0000 C   0  0  0  0  0  0  0  0  0  0  0  0
   10.7850   -5.9790    0.0000 C   0  0  0  0  0  0  0  0  0  0  0  0
    5.3267   -8.0044    0.0000 C   0  0  0  0  0  0  0  0  0  0  0  0
    4.5372   -8.2619    0.0000 C   0  0  0  0  0  0  0  0  0  0  0  0
    9.2402   -5.5327    0.0000 C   0  0  0  0  0  0  0  0  0  0  0  0
    9.5835   -6.2879    0.0000 C   0  0  0  0  0  0  0  0  0  0  0  0
   10.9567  -12.4957    0.0000 C   0  0  0  0  0  0  0  0  0  0  0  0
   11.6776  -12.0724    0.0000 C   0  0  0  0  0  0  0  0  0  0  0  0
   12.0380   -5.2409    0.0000 C   0  0  0  0  0  0  0  0  0  0  0  0
   11.1970   -5.2581    0.0000 C   0  0  0  0  0  0  0  0  0  0  0  0
    3.9364   -7.7126    0.0000 C   0  0  0  0  0  0  0  0  0  0  0  0
  2  4  1  0
  3 14  1  0
  4  1  1  0
  5  1  1  0
  6  3  1  0
  7  5  2  0
  8  9  1  0
  9  6  1  0
 10 11  2  0
 11  1  1  0
 12  8  1  0
 13 10  1  0
 14 16  1  0
 15  8  2  0
 16 23  1  0
 17 12  1  0
 18  2  1  0
 19 15  1  0
 20  3  2  0
 21  3  2  0
 22  4  2  0
 23 29  2  0
 24  9  2  0
 25 13  1  0
 26 13  1  0
 27 13  1  0
 28 34  2  0
 29 33  1  0
 30 18  1  0
 31  7  1  0
 32 10  1  0
 33 30  2  0
 34 30  1  0
 35 11  1  0
 36 14  2  0
 37 16  2  0
 38 17  2  0
 39 19  2  0
 40 31  1  0
 41 40  1  0
 42 43  1  0
 43 35  2  0
 44 37  1  0
 45 44  2  0
 46 38  1  0
 47 39  1  0
 48 41  1  0
  2  7  1  0
 42 32  2  0
 28 23  1  0
 45 36  1  0
 17 19  1  0
 47 46  2  0
M  END
>  <From>  (1) 
www.bindingDB.org

>  <BindingDB Reactant_set_id>  (1) 
50036536

>  <Ligand InChI>  (1) 
InChI=1S/C35H29F3N4O4S2/c1-2-3-16-32-39-42(28-13-7-6-12-27(28)35(36,37)38)34(44)41(32)22-23-17-19-24(20-18-23)26-11-5-9-15-31(26)48(45,46)40-33(43)30-21-25-10-4-8-14-29(25)47-30/h4-15,17-21H,2-3,16,22H2,1H3,(H,40,43)

>  <Ligand InChI Key>  (1) 
SIEOBZYPHMFGHF-UHFFFAOYSA-N

>  <BindingDB MonomerID>  (1) 
50039938

>  <BindingDB Ligand Name>  (1) 
4'-[3-Butyl-5-oxo-1-(2-trifluoromethyl-phenyl)-1,5-dihydro-[1,2,4]triazol-4-ylmethyl]-biphenyl-2-sulfonic acid (benzo[b]thiophene-2-carbonyl)-amide; compound with dichloro-methane::CHEMBL411487

>  <Target Name>  (1) 
Type-1 angiotensin II receptor

>  <Target Source Organism According to Curator or DataSource>  (1) 
Oryctolagus cuniculus

>  <Ki (nM)>  (1) 


>  <IC50 (nM)>  (1) 
 0.310000

>  <Kd (nM)>  (1) 


>  <EC50 (nM)>  (1) 


>  <kon (M-1-s-1)>  (1) 


>  <koff (s-1)>  (1) 


>  <pH>  (1) 


>  <Temp C>  (1) 


>  <Curation/DataSource>  (1) 
ChEMBL

>  <Article DOI>  (1) 
10.1021/jm00043a020

>  <BindingDB Entry DOI>  (1) 
10.7270/Q2M907QM

>  <PMID>  (1) 
8064808

>  <PubChem AID>  (1) 


>  <Patent Number>  (1) 


>  <Authors>  (1) 
Ashton, WT; Chang, LL; Flanagan, KL; Hutchins, SM; Naylor, EM; Chakravarty, PK; Patchett, AA; Greenlee, WJ; Chen, TB; Faust, KA

>  <Institution>  (1) 
Merck Research Laboratories

>  <Link to Ligand in BindingDB>  (1) 
http://www.bindingdb.org/bind/chemsearch/marvin/MolStructure.jsp?monomerid=50039938

>  <Link to Ligand-Target Pair in BindingDB>  (1) 
http://www.bindingdb.org/jsp/dbsearch/PrimarySearch_ki.jsp?energyterm=kJ/mole&tag=r21&monomerid=50039938&enzyme=Type-1+angiotensin+II+receptor&column=ki&startPg=0&Increment=50&submit=Search

>  <Ligand HET ID in PDB>  (1) 


>  <PDB ID(s) for Ligand-Target Complex>  (1) 


>  <PubChem CID of Ligand>  (1) 
10032583

>  <PubChem SID of Ligand>  (1) 
103947133

>  <ChEBI ID of Ligand>  (1) 


>  <ChEMBL ID of Ligand>  (1) 
CHEMBL411487

>  <DrugBank ID of Ligand>  (1) 


>  <IUPHAR_GRAC ID of Ligand>  (1) 


>  <KEGG ID of Ligand>  (1) 


>  <ZINC ID of Ligand>  (1) 
ZINC26719336

>  <Number of Protein Chains in Target (bigger than 1 implies a multichain complex)>  (1) 
1

>  <BindingDB Target Chain Sequence>  (1) 
MMLNSSTEDGIKRIQDDCPKAGRHNYIFVMIPTLYSIIFVVGIFGNSLAVIVIYFYMKLKTVASVFLLNLALADLCFLLTLPLWAVYTAMEYRWPFGNYLCKIASASVSFNLYASVFLLTCLSIDRYLAIVHPMKSRLRRTMLVAKVTCIIIWLLAGLASLPAIIHRNVFFIENTNITVCAFHYESQNSTLPIGLGLTKNILGFLFPFLIILTSYTLIWKALKKAYEIQKNKPRNDDIFKIIMAIVLFFFFSWVPHQIFTFLDVLIQLGVIHDCRIADIVDTAMPITICIAYFNNCLNPLFYGFLGKKFKKYFLQLLKYIPPKAKSHSNLSTKMSTLSYRPSDNVSSSSKKPVPCFEVE

>  <PDB ID(s) of Target Chain>  (1) 
6DO1,6OS0,6OS1,6OS2

>  <UniProt (SwissProt) Recommended Name of Target Chain>  (1) 
Type-1 angiotensin II receptor

>  <UniProt (SwissProt) Entry Name of Target Chain>  (1) 
AGTR1_RABIT

>  <UniProt (SwissProt) Primary ID of Target Chain>  (1) 
P34976

>  <UniProt (SwissProt) Secondary ID(s) of Target Chain>  (1) 


>  <UniProt (SwissProt) Alternative ID(s) of Target Chain>  (1) 


>  <UniProt (TrEMBL) Submitted Name of Target Chain>  (1) 


>  <UniProt (TrEMBL) Entry Name of Target Chain>  (1) 


>  <UniProt (TrEMBL) Primary ID of Target Chain>  (1) 


>  <UniProt (TrEMBL) Secondary ID(s) of Target Chain>  (1) 


>  <UniProt (TrEMBL) Alternative ID(s) of Target Chain>  (1) 


$$$$
