 
     RDKit          2D

 32 36  0  0  0  0  0  0  0  0999 V2000
    3.3368  -22.8743    0.0000 C   0  0  0  0  0  0  0  0  0  0  0  0
    2.9528  -22.1430    0.0000 C   0  0  0  0  0  0  0  0  0  0  0  0
    2.1385  -22.2822    0.0000 C   0  0  0  0  0  0  0  0  0  0  0  0
    2.0194  -23.0997    0.0000 C   0  0  0  0  0  0  0  0  0  0  0  0
    2.7600  -23.4656    0.0000 C   0  0  0  0  0  0  0  0  0  0  0  0
    3.7602  -23.5873    0.0000 N   0  0  0  0  0  0  0  0  0  0  0  0
    4.5654  -23.4075    0.0000 C   0  0  0  0  0  0  0  0  0  0  0  0
    4.6432  -22.5862    0.0000 N   0  0  0  0  0  0  0  0  0  0  0  0
    3.8860  -22.2583    0.0000 C   0  0  0  0  0  0  0  0  0  0  0  0
    3.7084  -21.4527    0.0000 O   0  0  0  0  0  0  0  0  0  0  0  0
    5.2736  -23.8307    0.0000 C   0  0  0  0  0  0  0  0  0  0  0  0
    5.2611  -24.6556    0.0000 C   0  0  0  0  0  0  0  0  0  0  0  0
    5.9692  -25.0790    0.0000 C   0  0  0  0  0  0  0  0  0  0  0  0
    5.9565  -25.9038    0.0000 C   0  0  0  0  0  0  0  0  0  0  0  0
    5.3534  -22.1664    0.0000 C   0  0  0  0  0  0  0  0  0  0  0  0
    6.0720  -22.5715    0.0000 C   0  0  0  0  0  0  0  0  0  0  0  0
    6.0783  -23.3939    0.0000 C   0  0  0  0  0  0  0  0  0  0  0  0
    6.7961  -23.7990    0.0000 C   0  0  0  0  0  0  0  0  0  0  0  0
    7.5072  -23.3791    0.0000 C   0  0  0  0  0  0  0  0  0  0  0  0
    7.4961  -22.5499    0.0000 C   0  0  0  0  0  0  0  0  0  0  0  0
    6.7777  -22.1486    0.0000 C   0  0  0  0  0  0  0  0  0  0  0  0
    8.2265  -23.7832    0.0000 C   0  0  0  0  0  0  0  0  0  0  0  0
    8.2335  -24.6082    0.0000 C   0  0  0  0  0  0  0  0  0  0  0  0
    8.9519  -25.0123    0.0000 C   0  0  0  0  0  0  0  0  0  0  0  0
    9.6625  -24.5915    0.0000 C   0  0  0  0  0  0  0  0  0  0  0  0
    9.6502  -23.7623    0.0000 C   0  0  0  0  0  0  0  0  0  0  0  0
    8.9313  -23.3619    0.0000 C   0  0  0  0  0  0  0  0  0  0  0  0
    8.9142  -22.5385    0.0000 C   0  0  0  0  0  0  0  0  0  0  0  0
    9.5741  -22.0434    0.0000 N   0  0  0  0  0  0  0  0  0  0  0  0
    9.3072  -21.2628    0.0000 N   0  0  0  0  0  0  0  0  0  0  0  0
    8.4822  -21.2754    0.0000 N   0  0  0  0  0  0  0  0  0  0  0  0
    8.2395  -22.0639    0.0000 N   0  0  0  0  0  0  0  0  0  0  0  0
  3  4  1  0
 15 16  1  0
  7  8  1  0
 16 17  2  0
  8  9  1  0
 17 18  1  0
  9  1  1  0
 18 19  2  0
  1  6  1  0
 19 20  1  0
  4  5  1  0
 20 21  2  0
 21 16  1  0
  9 10  2  0
 19 22  1  0
  5  1  1  0
 22 23  2  0
  7 11  1  0
 23 24  1  0
  6  7  2  0
 24 25  2  0
 11 12  1  0
 25 26  1  0
  1  2  1  0
 26 27  2  0
 27 22  1  0
 28 29  1  0
 12 13  1  0
 13 14  1  0
  2  3  1  0
  8 15  1  0
 29 30  1  0
 30 31  2  0
 31 32  1  0
 32 28  2  0
 27 28  1  0
M  END
>  <From>  (1) 
www.bindingDB.org

>  <BindingDB Reactant_set_id>  (1) 
51428818

>  <Ligand InChI>  (1) 
InChI=1S/C25H28N6O/c1-2-3-10-22-26-25(15-6-7-16-25)24(32)31(22)17-18-11-13-19(14-12-18)20-8-4-5-9-21(20)23-27-29-30-28-23/h4-5,8-9,11-14H,2-3,6-7,10,15-17H2,1H3,(H,27,28,29,30)

>  <Ligand InChI Key>  (1) 
YOSHYTLCDANDAN-UHFFFAOYSA-N

>  <BindingDB MonomerID>  (1) 
50042235

>  <BindingDB Ligand Name>  (1) 
2-butyl-3-{[2'-(1H-tetrazol-5-yl)[1,1'-biphenyl]-4-yl]methyl}-1,3-diazaspiro[4.4]non-1-en-4-one::2-butyl-3-{[2'-(1H-tetrazol-5-yl)biphenyl-4-yl]methyl}-1,3-diazaspiro[4.4]non-1-en-4-one::BMS 186295::CHEMBL1513::IRBESARTAN

>  <Target Name>  (1) 
Type-1 angiotensin II receptor

>  <Target Source Organism According to Curator or DataSource>  (1) 
Homo sapiens

>  <Ki (nM)>  (1) 


>  <IC50 (nM)>  (1) 
 6.0

>  <Kd (nM)>  (1) 


>  <EC50 (nM)>  (1) 


>  <kon (M-1-s-1)>  (1) 


>  <koff (s-1)>  (1) 


>  <pH>  (1) 


>  <Temp C>  (1) 


>  <Curation/DataSource>  (1) 
ChEMBL

>  <Article DOI>  (1) 
10.1021/acsmedchemlett.1c00240

>  <BindingDB Entry DOI>  (1) 
10.7270/Q2FJ2MMF

>  <PMID>  (1) 
34413955

>  <PubChem AID>  (1) 


>  <Patent Number>  (1) 


>  <Authors>  (1) 
Hernandez-Olmos, V; Heering, J; Bischoff-Kont, I; Kaps, A; Rajkumar, R; Liu, T; Fürst, R; Steinhilber, D; Proschak, E

>  <Institution>  (1) 
Fraunhofer Institute for Translational Medicine and Phamacology ITMP

>  <Link to Ligand in BindingDB>  (1) 
http://www.bindingdb.org/bind/chemsearch/marvin/MolStructure.jsp?monomerid=50042235

>  <Link to Ligand-Target Pair in BindingDB>  (1) 
http://www.bindingdb.org/jsp/dbsearch/PrimarySearch_ki.jsp?energyterm=kJ/mole&tag=r21&monomerid=50042235&enzyme=Type-1+angiotensin+II+receptor&column=ki&startPg=0&Increment=50&submit=Search

>  <Ligand HET ID in PDB>  (1) 


>  <PDB ID(s) for Ligand-Target Complex>  (1) 


>  <PubChem CID of Ligand>  (1) 
3749

>  <PubChem SID of Ligand>  (1) 
103973843

>  <ChEBI ID of Ligand>  (1) 


>  <ChEMBL ID of Ligand>  (1) 
CHEMBL1513

>  <DrugBank ID of Ligand>  (1) 


>  <IUPHAR_GRAC ID of Ligand>  (1) 
589

>  <KEGG ID of Ligand>  (1) 
C07469

>  <ZINC ID of Ligand>  (1) 
ZINC13298436

>  <Number of Protein Chains in Target (bigger than 1 implies a multichain complex)>  (1) 
1

>  <BindingDB Target Chain Sequence>  (1) 
MILNSSTEDGIKRIQDDCPKAGRHNYIFVMIPTLYSIIFVVGIFGNSLVVIVIYFYMKLKTVASVFLLNLALADLCFLLTLPLWAVYTAMEYRWPFGNYLCKIASASVSFNLYASVFLLTCLSIDRYLAIVHPMKSRLRRTMLVAKVTCIIIWLLAGLASLPAIIHRNVFFIENTNITVCAFHYESQNSTLPIGLGLTKNILGFLFPFLIILTSYTLIWKALKKAYEIQKNKPRNDDIFKIIMAIVLFFFFSWIPHQIFTFLDVLIQLGIIRDCRIADIVDTAMPITICIAYFNNCLNPLFYGFLGKKFKRYFLQLLKYIPPKAKSHSNLSTKMSTLSYRPSDNVSSSTKKPAPCFEVE

>  <PDB ID(s) of Target Chain>  (1) 
6DO1,6OS0,6OS1,6OS2

>  <UniProt (SwissProt) Recommended Name of Target Chain>  (1) 
Type-1 angiotensin II receptor

>  <UniProt (SwissProt) Entry Name of Target Chain>  (1) 
AGTR1_HUMAN

>  <UniProt (SwissProt) Primary ID of Target Chain>  (1) 
P30556

>  <UniProt (SwissProt) Secondary ID(s) of Target Chain>  (1) 
Q13725 Q8TBK4

>  <UniProt (SwissProt) Alternative ID(s) of Target Chain>  (1) 


>  <UniProt (TrEMBL) Submitted Name of Target Chain>  (1) 


>  <UniProt (TrEMBL) Entry Name of Target Chain>  (1) 


>  <UniProt (TrEMBL) Primary ID of Target Chain>  (1) 


>  <UniProt (TrEMBL) Secondary ID(s) of Target Chain>  (1) 


>  <UniProt (TrEMBL) Alternative ID(s) of Target Chain>  (1) 


$$$$
