
     RDKit          2D

 50 54  0  0  0  0  0  0  0  0999 V2000
    1.5088   -0.1944    0.0000 N   0  0  0  0  0  0  0  0  0  0  0  0
    1.1031   -1.4707    0.0000 N   0  0  0  0  0  0  0  0  0  0  0  0
    4.6574   -2.6795    0.0000 S   0  0  0  0  0  0  0  0  0  0  0  0
    1.7666   -0.9805    0.0000 C   0  0  0  0  0  0  0  0  0  0  0  0
    0.6847   -0.2029    0.0000 N   0  0  0  0  0  0  0  0  0  0  0  0
    0.4353   -0.9805    0.0000 C   0  0  0  0  0  0  0  0  0  0  0  0
    4.6574   -1.8554    0.0000 N   0  0  0  0  0  0  0  0  0  0  0  0
    1.9822    0.4649    0.0000 C   0  0  0  0  0  0  0  0  0  0  0  0
    5.3674   -1.4454    0.0000 C   0  0  0  0  0  0  0  0  0  0  0  0
    4.6701   -3.5036    0.0000 C   0  0  0  0  0  0  0  0  0  0  0  0
    6.0859   -1.8511    0.0000 C   0  0  0  0  0  0  0  0  0  0  0  0
    3.9601   -3.9178    0.0000 C   0  0  0  0  0  0  0  0  0  0  0  0
    2.8147    0.3888    0.0000 C   0  0  0  0  0  0  0  0  0  0  0  0
    1.1031   -2.2865    0.0000 C   0  0  0  0  0  0  0  0  0  0  0  0
    3.8333   -2.6922    0.0000 O   0  0  0  0  0  0  0  0  0  0  0  0
    5.4899   -2.6795    0.0000 O   0  0  0  0  0  0  0  0  0  0  0  0
    2.5527   -1.2299    0.0000 O   0  0  0  0  0  0  0  0  0  0  0  0
    1.6525    1.2129    0.0000 C   0  0  0  0  0  0  0  0  0  0  0  0
    5.3885   -3.9094    0.0000 C   0  0  0  0  0  0  0  0  0  0  0  0
    3.2501   -3.5163    0.0000 C   0  0  0  0  0  0  0  0  0  0  0  0
    4.6151    1.6567    0.0000 C   0  0  0  0  0  0  0  0  0  0  0  0
    4.1249    0.9720    0.0000 N   0  0  0  0  0  0  0  0  0  0  0  0
    6.7875   -1.4370    0.0000 C   0  0  0  0  0  0  0  0  0  0  0  0
    3.2881    1.0523    0.0000 C   0  0  0  0  0  0  0  0  0  0  0  0
    3.9685   -4.7462    0.0000 C   0  0  0  0  0  0  0  0  0  0  0  0
    5.3632   -0.6213    0.0000 O   0  0  0  0  0  0  0  0  0  0  0  0
    4.2728    2.4174    0.0000 O   0  0  0  0  0  0  0  0  0  0  0  0
    2.1300    1.8849    0.0000 C   0  0  0  0  0  0  0  0  0  0  0  0
    3.2374   -2.6879    0.0000 C   0  0  0  0  0  0  0  0  0  0  0  0
    2.5400   -3.9304    0.0000 C   0  0  0  0  0  0  0  0  0  0  0  0
    1.8173   -2.7006    0.0000 C   0  0  0  0  0  0  0  0  0  0  0  0
    5.3928   -4.7335    0.0000 C   0  0  0  0  0  0  0  0  0  0  0  0
    4.6828   -5.1519    0.0000 C   0  0  0  0  0  0  0  0  0  0  0  0
    2.9542    1.8088    0.0000 C   0  0  0  0  0  0  0  0  0  0  0  0
    0.8157    1.2932    0.0000 Cl  0  0  0  0  0  0  0  0  0  0  0  0
    6.7875   -0.6128    0.0000 Cl  0  0  0  0  0  0  0  0  0  0  0  0
   -0.3507   -1.2425    0.0000 C   0  0  0  0  0  0  0  0  0  0  0  0
    2.5274   -2.2822    0.0000 C   0  0  0  0  0  0  0  0  0  0  0  0
    1.8173   -3.5247    0.0000 C   0  0  0  0  0  0  0  0  0  0  0  0
    6.0901   -2.6752    0.0000 C   0  0  0  0  0  0  0  0  0  0  0  0
    5.4435    1.5679    0.0000 C   0  0  0  0  0  0  0  0  0  0  0  0
    7.5101   -1.8384    0.0000 C   0  0  0  0  0  0  0  0  0  0  0  0
    4.6828   -5.9887    0.0000 C   0  0  0  0  0  0  0  0  0  0  0  0
   -0.9720   -0.6889    0.0000 C   0  0  0  0  0  0  0  0  0  0  0  0
   -1.7497   -0.9509    0.0000 C   0  0  0  0  0  0  0  0  0  0  0  0
    6.8001   -3.0810    0.0000 C   0  0  0  0  0  0  0  0  0  0  0  0
    5.9380    2.2526    0.0000 C   0  0  0  0  0  0  0  0  0  0  0  0
    3.9601   -6.4071    0.0000 C   0  0  0  0  0  0  0  0  0  0  0  0
   -2.3667   -0.4057    0.0000 C   0  0  0  0  0  0  0  0  0  0  0  0
    7.5186   -2.6668    0.0000 C   0  0  0  0  0  0  0  0  0  0  0  0
  2  4  1  0
  3 10  1  0
  4  1  1  0
  5  1  1  0
  6  5  2  0
  7  3  1  0
  8  1  1  0
  9  7  1  0
 10 12  1  0
 11  9  1  0
 12 20  1  0
 13  8  2  0
 14  2  1  0
 15  3  2  0
 16  3  2  0
 17  4  2  0
 18  8  1  0
 19 10  2  0
 20 30  2  0
 21 22  1  0
 22 24  1  0
 23 11  2  0
 24 13  1  0
 25 12  2  0
 26  9  2  0
 27 21  2  0
 28 18  2  0
 29 38  2  0
 30 39  1  0
 31 14  1  0
 32 33  2  0
 33 25  1  0
 34 28  1  0
 35 18  1  0
 36 23  1  0
 37  6  1  0
 38 31  1  0
 39 31  2  0
 40 11  1  0
 41 21  1  0
 42 23  1  0
 43 33  1  0
 44 37  1  0
 45 44  1  0
 46 40  2  0
 47 41  1  0
 48 43  1  0
 49 45  1  0
 50 46  1  0
  2  6  1  0
 34 24  2  0
 20 29  1  0
 19 32  1  0
 50 42  2  0
M  END
>  <From>  (1) 
www.bindingDB.org

>  <BindingDB Reactant_set_id>  (1) 
50470318

>  <Ligand InChI>  (1) 
InChI=1S/C37H37Cl2N5O5S/c1-4-7-12-34-41-44(32-22-27(18-19-31(32)39)40-35(45)6-3)37(47)43(34)23-25-13-16-26(17-14-25)29-21-24(5-2)15-20-33(29)50(48,49)42-36(46)28-10-8-9-11-30(28)38/h8-11,13-22H,4-7,12,23H2,1-3H3,(H,40,45)(H,42,46)

>  <Ligand InChI Key>  (1) 
AEPYFWHKXWJXGU-UHFFFAOYSA-N

>  <BindingDB MonomerID>  (1) 
50283759

>  <BindingDB Ligand Name>  (1) 
CHEMBL319730::N-(3-{3-Butyl-4-[2'-(2-chloro-benzoylsulfamoyl)-5'-ethyl-biphenyl-4-ylmethyl]-5-oxo-4,5-dihydro-[1,2,4]triazol-1-yl}-4-chloro-phenyl)-propionamide

>  <Target Name>  (1) 
Type-1 angiotensin II receptor

>  <Target Source Organism According to Curator or DataSource>  (1) 
Oryctolagus cuniculus

>  <Ki (nM)>  (1) 


>  <IC50 (nM)>  (1) 
 0.250000

>  <Kd (nM)>  (1) 


>  <EC50 (nM)>  (1) 


>  <kon (M-1-s-1)>  (1) 


>  <koff (s-1)>  (1) 


>  <pH>  (1) 


>  <Temp C>  (1) 


>  <Curation/DataSource>  (1) 
ChEMBL

>  <Article DOI>  (1) 
10.1016/S0960-894X(01)80595-3

>  <BindingDB Entry DOI>  (1) 
10.7270/Q2WS8T68

>  <PMID>  (1) 


>  <PubChem AID>  (1) 


>  <Patent Number>  (1) 


>  <Authors>  (1) 
Chang, LL; Ashton, WT; Flanagan, KL; Rivero, RA; Chen, TB; O'Malley, SS; Zingaro, GJ; Kivlighn, SD; Siegl, PK; Lotti, VJ; Chang, RS; Greenlee, WJ

>  <Institution>  (1) 
TBA

>  <Link to Ligand in BindingDB>  (1) 
http://www.bindingdb.org/bind/chemsearch/marvin/MolStructure.jsp?monomerid=50283759

>  <Link to Ligand-Target Pair in BindingDB>  (1) 
http://www.bindingdb.org/jsp/dbsearch/PrimarySearch_ki.jsp?energyterm=kJ/mole&tag=r21&monomerid=50283759&enzyme=Type-1+angiotensin+II+receptor&column=ki&startPg=0&Increment=50&submit=Search

>  <Ligand HET ID in PDB>  (1) 


>  <PDB ID(s) for Ligand-Target Complex>  (1) 


>  <PubChem CID of Ligand>  (1) 
19939418

>  <PubChem SID of Ligand>  (1) 
104125416

>  <ChEBI ID of Ligand>  (1) 


>  <ChEMBL ID of Ligand>  (1) 
CHEMBL319730

>  <DrugBank ID of Ligand>  (1) 


>  <IUPHAR_GRAC ID of Ligand>  (1) 


>  <KEGG ID of Ligand>  (1) 


>  <ZINC ID of Ligand>  (1) 
ZINC26670121

>  <Number of Protein Chains in Target (bigger than 1 implies a multichain complex)>  (1) 
1

>  <BindingDB Target Chain Sequence>  (1) 
MMLNSSTEDGIKRIQDDCPKAGRHNYIFVMIPTLYSIIFVVGIFGNSLAVIVIYFYMKLKTVASVFLLNLALADLCFLLTLPLWAVYTAMEYRWPFGNYLCKIASASVSFNLYASVFLLTCLSIDRYLAIVHPMKSRLRRTMLVAKVTCIIIWLLAGLASLPAIIHRNVFFIENTNITVCAFHYESQNSTLPIGLGLTKNILGFLFPFLIILTSYTLIWKALKKAYEIQKNKPRNDDIFKIIMAIVLFFFFSWVPHQIFTFLDVLIQLGVIHDCRIADIVDTAMPITICIAYFNNCLNPLFYGFLGKKFKKYFLQLLKYIPPKAKSHSNLSTKMSTLSYRPSDNVSSSSKKPVPCFEVE

>  <PDB ID(s) of Target Chain>  (1) 
6DO1,6OS0,6OS1,6OS2

>  <UniProt (SwissProt) Recommended Name of Target Chain>  (1) 
Type-1 angiotensin II receptor

>  <UniProt (SwissProt) Entry Name of Target Chain>  (1) 
AGTR1_RABIT

>  <UniProt (SwissProt) Primary ID of Target Chain>  (1) 
P34976

>  <UniProt (SwissProt) Secondary ID(s) of Target Chain>  (1) 


>  <UniProt (SwissProt) Alternative ID(s) of Target Chain>  (1) 


>  <UniProt (TrEMBL) Submitted Name of Target Chain>  (1) 


>  <UniProt (TrEMBL) Entry Name of Target Chain>  (1) 


>  <UniProt (TrEMBL) Primary ID of Target Chain>  (1) 


>  <UniProt (TrEMBL) Secondary ID(s) of Target Chain>  (1) 


>  <UniProt (TrEMBL) Alternative ID(s) of Target Chain>  (1) 


$$$$
