
     RDKit          2D

 32 36  0  0  0  0  0  0  0  0999 V2000
   -2.6893   -0.8467    0.0000 C   0  0  0  0  0  0  0  0  0  0  0  0
   -2.6917   -1.6733    0.0000 C   0  0  0  0  0  0  0  0  0  0  0  0
   -3.4079   -2.0835    0.0000 C   0  0  0  0  0  0  0  0  0  0  0  0
   -3.4106   -2.9094    0.0000 C   0  0  0  0  0  0  0  0  0  0  0  0
   -2.6948   -3.3235    0.0000 C   0  0  0  0  0  0  0  0  0  0  0  0
   -1.9748   -2.9100    0.0000 C   0  0  0  0  0  0  0  0  0  0  0  0
   -1.9756   -2.0855    0.0000 C   0  0  0  0  0  0  0  0  0  0  0  0
   -2.6959   -4.1456    0.0000 C   0  0  0  0  0  0  0  0  0  0  0  0
   -3.4147   -4.5592    0.0000 C   0  0  0  0  0  0  0  0  0  0  0  0
   -3.4163   -5.3851    0.0000 C   0  0  0  0  0  0  0  0  0  0  0  0
   -2.7000   -5.7983    0.0000 C   0  0  0  0  0  0  0  0  0  0  0  0
   -1.9805   -5.3838    0.0000 C   0  0  0  0  0  0  0  0  0  0  0  0
   -1.9824   -4.5593    0.0000 C   0  0  0  0  0  0  0  0  0  0  0  0
   -1.2664   -4.1431    0.0000 C   0  0  0  0  0  0  0  0  0  0  0  0
   -0.5129   -4.4791    0.0000 N   0  0  0  0  0  0  0  0  0  0  0  0
    0.0409   -3.8631    0.0000 N   0  0  0  0  0  0  0  0  0  0  0  0
   -1.1838   -3.3190    0.0000 N   0  0  0  0  0  0  0  0  0  0  0  0
   -0.4536   -3.1376    0.0000 N   0  0  0  0  0  0  0  0  0  0  0  0
   -1.9757   -0.4376    0.0000 N   0  0  0  0  0  0  0  0  0  0  0  0
   -1.2240   -0.7782    0.0000 C   0  0  0  0  0  0  0  0  0  0  0  0
   -1.8860    0.3761    0.0000 N   0  0  0  0  0  0  0  0  0  0  0  0
   -1.0569   -1.5835    0.0000 O   0  0  0  0  0  0  0  0  0  0  0  0
   -1.0811    0.5449    0.0000 C   0  0  0  0  0  0  0  0  0  0  0  0
   -0.6751   -0.1703    0.0000 C   0  0  0  0  0  0  0  0  0  0  0  0
    0.1454   -0.1753    0.0000 C   0  0  0  0  0  0  0  0  0  0  0  0
    0.5609    0.5342    0.0000 C   0  0  0  0  0  0  0  0  0  0  0  0
    0.1499    1.2501    0.0000 C   0  0  0  0  0  0  0  0  0  0  0  0
   -0.6692    1.2516    0.0000 N   0  0  0  0  0  0  0  0  0  0  0  0
   -2.4951    0.9290    0.0000 C   0  0  0  0  0  0  0  0  0  0  0  0
   -2.3209    1.7327    0.0000 C   0  0  0  0  0  0  0  0  0  0  0  0
   -2.9299    2.2855    0.0000 C   0  0  0  0  0  0  0  0  0  0  0  0
   -2.7558    3.0893    0.0000 C   0  0  0  0  0  0  0  0  0  0  0  0
  3  4  2  0
 15 16  1  0
 16 18  2  0
 18 17  1  0
 17 14  2  0
  8  9  2  0
  4  5  1  0
  1 19  1  0
 19 20  1  0
  9 10  1  0
  2  3  1  0
 20 24  1  0
 23 21  1  0
 21 19  1  0
 10 11  2  0
 20 22  2  0
  5  6  2  0
 11 12  1  0
 23 24  2  0
  1  2  1  0
 24 25  1  0
 12 13  2  0
 25 26  2  0
 13  8  1  0
 26 27  1  0
  5  8  1  0
 27 28  2  0
 28 23  1  0
  6  7  1  0
 21 29  1  0
 13 14  1  0
 29 30  1  0
 14 15  1  0
 30 31  1  0
  7  2  2  0
 31 32  1  0
M  END
>  <From>  (1) 
www.bindingDB.org

>  <BindingDB Reactant_set_id>  (1) 
50867923

>  <Ligand InChI>  (1) 
InChI=1S/C24H23N7O/c1-2-3-15-30-23-21(9-6-14-25-23)24(32)31(30)16-17-10-12-18(13-11-17)19-7-4-5-8-20(19)22-26-28-29-27-22/h4-14H,2-3,15-16H2,1H3,(H,26,27,28,29)

>  <Ligand InChI Key>  (1) 
NEJFAMVNQNXGLG-UHFFFAOYSA-N

>  <BindingDB MonomerID>  (1) 
50376913

>  <BindingDB Ligand Name>  (1) 
CHEMBL259353

>  <Target Name>  (1) 
Type-1 angiotensin II receptor A

>  <Target Source Organism According to Curator or DataSource>  (1) 
Rattus

>  <Ki (nM)>  (1) 


>  <IC50 (nM)>  (1) 
 39

>  <Kd (nM)>  (1) 


>  <EC50 (nM)>  (1) 


>  <kon (M-1-s-1)>  (1) 


>  <koff (s-1)>  (1) 


>  <pH>  (1) 


>  <Temp C>  (1) 


>  <Curation/DataSource>  (1) 
ChEMBL

>  <Article DOI>  (1) 
10.1021/jm7011563

>  <BindingDB Entry DOI>  (1) 
10.7270/Q20P10X0

>  <PMID>  (1) 
18318468

>  <PubChem AID>  (1) 


>  <Patent Number>  (1) 


>  <Authors>  (1) 
Cappelli, A; Nannicini, C; Gallelli, A; Giuliani, G; Valenti, S; Mohr, Gl; Anzini, M; Mennuni, L; Ferrari, F; Caselli, G; Giordani, A; Peris, W; Makovec, F; Giorgi, G; Vomero, S

>  <Institution>  (1) 
Universit&#163; di Siena

>  <Link to Ligand in BindingDB>  (1) 
http://www.bindingdb.org/bind/chemsearch/marvin/MolStructure.jsp?monomerid=50376913

>  <Link to Ligand-Target Pair in BindingDB>  (1) 
http://www.bindingdb.org/jsp/dbsearch/PrimarySearch_ki.jsp?energyterm=kJ/mole&tag=r21&monomerid=50376913&enzyme=Type-1+angiotensin+II+receptor+A&column=ki&startPg=0&Increment=50&submit=Search

>  <Ligand HET ID in PDB>  (1) 


>  <PDB ID(s) for Ligand-Target Complex>  (1) 


>  <PubChem CID of Ligand>  (1) 
24828707

>  <PubChem SID of Ligand>  (1) 
160855996

>  <ChEBI ID of Ligand>  (1) 


>  <ChEMBL ID of Ligand>  (1) 
CHEMBL259353

>  <DrugBank ID of Ligand>  (1) 


>  <IUPHAR_GRAC ID of Ligand>  (1) 


>  <KEGG ID of Ligand>  (1) 


>  <ZINC ID of Ligand>  (1) 
ZINC29050961

>  <Number of Protein Chains in Target (bigger than 1 implies a multichain complex)>  (1) 
1

>  <BindingDB Target Chain Sequence>  (1) 
MALNSSAEDGIKRIQDDCPKAGRHSYIFVMIPTLYSIIFVVGIFGNSLVVIVIYFYMKLKTVASVFLLNLALADLCFLLTLPLWAVYTAMEYRWPFGNHLCKIASASVSFNLYASVFLLTCLSIDRYLAIVHPMKSRLRRTMLVAKVTCIIIWLMAGLASLPAVIHRNVYFIENTNITVCAFHYESRNSTLPIGLGLTKNILGFLFPFLIILTSYTLIWKALKKAYEIQKNKPRNDDIFRIIMAIVLFFFFSWVPHQIFTFLDVLIQLGVIHDCKISDIVDTAMPITICIAYFNNCLNPLFYGFLGKKFKKYFLQLLKYIPPKAKSHSSLSTKMSTLSYRPSDNMSSSAKKPASCFEVE

>  <PDB ID(s) of Target Chain>  (1) 


>  <UniProt (SwissProt) Recommended Name of Target Chain>  (1) 
Type-1 angiotensin II receptor A

>  <UniProt (SwissProt) Entry Name of Target Chain>  (1) 
AGTRA_RAT

>  <UniProt (SwissProt) Primary ID of Target Chain>  (1) 
P25095

>  <UniProt (SwissProt) Secondary ID(s) of Target Chain>  (1) 
Q9QVS5

>  <UniProt (SwissProt) Alternative ID(s) of Target Chain>  (1) 


>  <UniProt (TrEMBL) Submitted Name of Target Chain>  (1) 


>  <UniProt (TrEMBL) Entry Name of Target Chain>  (1) 


>  <UniProt (TrEMBL) Primary ID of Target Chain>  (1) 


>  <UniProt (TrEMBL) Secondary ID(s) of Target Chain>  (1) 


>  <UniProt (TrEMBL) Alternative ID(s) of Target Chain>  (1) 


$$$$
