
     RDKit          2D

 39 43  0  0  0  0  0  0  0  0999 V2000
   10.3775  -24.3720    0.0000 C   0  0  0  0  0  0  0  0  0  0  0  0
   11.0780  -23.9301    0.0000 C   0  0  0  0  0  0  0  0  0  0  0  0
   11.8062  -24.3162    0.0000 C   0  0  0  0  0  0  0  0  0  0  0  0
   11.8352  -25.1401    0.0000 C   0  0  0  0  0  0  0  0  0  0  0  0
   11.1348  -25.5820    0.0000 C   0  0  0  0  0  0  0  0  0  0  0  0
   10.4065  -25.1959    0.0000 C   0  0  0  0  0  0  0  0  0  0  0  0
    9.6493  -23.9860    0.0000 C   0  0  0  0  0  0  0  0  0  0  0  0
    8.9500  -24.4239    0.0000 C   0  0  0  0  0  0  0  0  0  0  0  0
    8.2217  -24.0379    0.0000 C   0  0  0  0  0  0  0  0  0  0  0  0
    8.1888  -23.2128    0.0000 C   0  0  0  0  0  0  0  0  0  0  0  0
    8.8881  -22.7749    0.0000 C   0  0  0  0  0  0  0  0  0  0  0  0
    9.6163  -23.1610    0.0000 C   0  0  0  0  0  0  0  0  0  0  0  0
   11.0439  -23.1092    0.0000 C   0  0  0  0  0  0  0  0  0  0  0  0
   11.7432  -22.6712    0.0000 O   0  0  0  0  0  0  0  0  0  0  0  0
   10.3156  -22.7231    0.0000 O   0  0  0  0  0  0  0  0  0  0  0  0
    7.4594  -22.8308    0.0000 C   0  0  0  0  0  0  0  0  0  0  0  0
    7.9158  -21.3356    0.0000 C   0  0  0  0  0  0  0  0  0  0  0  0
    7.4269  -20.6702    0.0000 N   0  0  0  0  0  0  0  0  0  0  0  0
    6.6423  -20.9231    0.0000 C   0  0  0  0  0  0  0  0  0  0  0  0
    6.6423  -21.7481    0.0000 C   0  0  0  0  0  0  0  0  0  0  0  0
    7.4265  -22.0058    0.0000 N   0  0  0  0  0  0  0  0  0  0  0  0
    5.9306  -20.5106    0.0000 C   0  0  0  0  0  0  0  0  0  0  0  0
    5.2147  -20.9231    0.0000 C   0  0  0  0  0  0  0  0  0  0  0  0
    5.2147  -21.7481    0.0000 C   0  0  0  0  0  0  0  0  0  0  0  0
    5.9306  -22.1606    0.0000 C   0  0  0  0  0  0  0  0  0  0  0  0
    8.7407  -21.3356    0.0000 C   0  0  0  0  0  0  0  0  0  0  0  0
    9.1532  -20.6240    0.0000 C   0  0  0  0  0  0  0  0  0  0  0  0
    9.9782  -20.6240    0.0000 C   0  0  0  0  0  0  0  0  0  0  0  0
    5.9306  -19.6857    0.0000 C   0  0  0  0  0  0  0  0  0  0  0  0
    4.5030  -22.1606    0.0000 C   0  0  0  0  0  0  0  0  0  0  0  0
    3.7872  -21.7481    0.0000 O   0  0  0  0  0  0  0  0  0  0  0  0
    4.5030  -22.9856    0.0000 N   0  0  0  0  0  0  0  0  0  0  0  0
    3.7872  -23.3981    0.0000 C   0  0  0  0  0  0  0  0  0  0  0  0
    3.7872  -24.2231    0.0000 C   0  0  0  0  0  0  0  0  0  0  0  0
    3.0713  -24.6356    0.0000 C   0  0  0  0  0  0  0  0  0  0  0  0
    2.3555  -24.2231    0.0000 C   0  0  0  0  0  0  0  0  0  0  0  0
    2.3555  -23.3981    0.0000 C   0  0  0  0  0  0  0  0  0  0  0  0
    3.0713  -22.9856    0.0000 C   0  0  0  0  0  0  0  0  0  0  0  0
    1.6437  -24.6356    0.0000 C   0  0  0  0  0  0  0  0  0  0  0  0
  1  2  2  0
  2  3  1  0
  3  4  2  0
  4  5  1  0
  5  6  2  0
  1  6  1  0
  7  8  2  0
  8  9  1  0
  9 10  2  0
 10 11  1  0
 11 12  2  0
  7 12  1  0
  1  7  1  0
 13 14  2  0
 13 15  1  0
  2 13  1  0
 17 18  2  0
 18 19  1  0
 19 20  2  0
 20 21  1  0
 17 21  1  0
 22 23  2  0
 23 24  1  0
 24 25  2  0
 20 25  1  0
 19 22  1  0
 26 27  1  0
 27 28  1  0
 17 26  1  0
 22 29  1  0
 30 31  2  0
 33 34  2  0
 34 35  1  0
 35 36  2  0
 36 37  1  0
 37 38  2  0
 33 38  1  0
 36 39  1  0
 32 33  1  0
 30 32  1  0
 24 30  1  0
 16 21  1  0
 10 16  1  0
M  END
>  <From>  (1) 
www.bindingDB.org

>  <BindingDB Reactant_set_id>  (1) 
51199740

>  <Ligand InChI>  (1) 
InChI=1S/C33H31N3O3/c1-4-7-30-35-31-22(3)18-25(32(37)34-26-16-10-21(2)11-17-26)19-29(31)36(30)20-23-12-14-24(15-13-23)27-8-5-6-9-28(27)33(38)39/h5-6,8-19H,4,7,20H2,1-3H3,(H,34,37)(H,38,39)

>  <Ligand InChI Key>  (1) 
BZHLUYSOYJBCMN-UHFFFAOYSA-N

>  <BindingDB MonomerID>  (1) 
50493587

>  <BindingDB Ligand Name>  (1) 
CHEMBL2435834

>  <Target Name>  (1) 
Type-1 angiotensin II receptor

>  <Target Source Organism According to Curator or DataSource>  (1) 
Homo sapiens

>  <Ki (nM)>  (1) 


>  <IC50 (nM)>  (1) 
 39

>  <Kd (nM)>  (1) 


>  <EC50 (nM)>  (1) 


>  <kon (M-1-s-1)>  (1) 


>  <koff (s-1)>  (1) 


>  <pH>  (1) 


>  <Temp C>  (1) 


>  <Curation/DataSource>  (1) 
ChEMBL

>  <Article DOI>  (1) 
10.1016/j.ejmech.2013.08.014

>  <BindingDB Entry DOI>  (1) 
10.7270/Q2PK0K32

>  <PMID>  (1) 
24007859

>  <PubChem AID>  (1) 


>  <Patent Number>  (1) 


>  <Authors>  (1) 
Zhang, J; Wang, JL; Yu, WF; Zhou, ZM; Tao, WC; Wang, YC; Xue, WZ; Xu, D; Hao, LP; Han, XF; Fei, F; Liu, T; Liang, AH

>  <Institution>  (1) 
Beijing Institute of Technology

>  <Link to Ligand in BindingDB>  (1) 
http://www.bindingdb.org/bind/chemsearch/marvin/MolStructure.jsp?monomerid=50493587

>  <Link to Ligand-Target Pair in BindingDB>  (1) 
http://www.bindingdb.org/jsp/dbsearch/PrimarySearch_ki.jsp?energyterm=kJ/mole&tag=r21&monomerid=50493587&enzyme=Type-1+angiotensin+II+receptor&column=ki&startPg=0&Increment=50&submit=Search

>  <Ligand HET ID in PDB>  (1) 


>  <PDB ID(s) for Ligand-Target Complex>  (1) 


>  <PubChem CID of Ligand>  (1) 
73357018

>  <PubChem SID of Ligand>  (1) 
433960852

>  <ChEBI ID of Ligand>  (1) 


>  <ChEMBL ID of Ligand>  (1) 


>  <DrugBank ID of Ligand>  (1) 


>  <IUPHAR_GRAC ID of Ligand>  (1) 


>  <KEGG ID of Ligand>  (1) 


>  <ZINC ID of Ligand>  (1) 


>  <Number of Protein Chains in Target (bigger than 1 implies a multichain complex)>  (1) 
1

>  <BindingDB Target Chain Sequence>  (1) 
MILNSSTEDGIKRIQDDCPKAGRHNYIFVMIPTLYSIIFVVGIFGNSLVVIVIYFYMKLKTVASVFLLNLALADLCFLLTLPLWAVYTAMEYRWPFGNYLCKIASASVSFNLYASVFLLTCLSIDRYLAIVHPMKSRLRRTMLVAKVTCIIIWLLAGLASLPAIIHRNVFFIENTNITVCAFHYESQNSTLPIGLGLTKNILGFLFPFLIILTSYTLIWKALKKAYEIQKNKPRNDDIFKIIMAIVLFFFFSWIPHQIFTFLDVLIQLGIIRDCRIADIVDTAMPITICIAYFNNCLNPLFYGFLGKKFKRYFLQLLKYIPPKAKSHSNLSTKMSTLSYRPSDNVSSSTKKPAPCFEVE

>  <PDB ID(s) of Target Chain>  (1) 
6DO1,6OS0,6OS1,6OS2

>  <UniProt (SwissProt) Recommended Name of Target Chain>  (1) 
Type-1 angiotensin II receptor

>  <UniProt (SwissProt) Entry Name of Target Chain>  (1) 
AGTR1_HUMAN

>  <UniProt (SwissProt) Primary ID of Target Chain>  (1) 
P30556

>  <UniProt (SwissProt) Secondary ID(s) of Target Chain>  (1) 
Q13725 Q8TBK4

>  <UniProt (SwissProt) Alternative ID(s) of Target Chain>  (1) 


>  <UniProt (TrEMBL) Submitted Name of Target Chain>  (1) 


>  <UniProt (TrEMBL) Entry Name of Target Chain>  (1) 


>  <UniProt (TrEMBL) Primary ID of Target Chain>  (1) 


>  <UniProt (TrEMBL) Secondary ID(s) of Target Chain>  (1) 


>  <UniProt (TrEMBL) Alternative ID(s) of Target Chain>  (1) 


$$$$
