
     RDKit          2D

 34 38  0  0  0  0  0  0  0  0999 V2000
    2.3335  -10.3464    0.0000 N   0  0  0  0  0  0  0  0  0  0  0  0
    1.8417   -9.6772    0.0000 C   0  0  0  0  0  0  0  0  0  0  0  0
    3.1228  -10.0890    0.0000 C   0  0  0  0  0  0  0  0  0  0  0  0
    2.3221   -9.0080    0.0000 N   0  0  0  0  0  0  0  0  0  0  0  0
    5.6279  -13.4749    0.0000 C   0  0  0  0  0  0  0  0  0  0  0  0
    3.8320  -10.5008    0.0000 C   0  0  0  0  0  0  0  0  0  0  0  0
    5.5650  -12.1480    0.0000 N   0  0  0  0  0  0  0  0  0  0  0  0
    5.1131  -12.8343    0.0000 N   0  0  0  0  0  0  0  0  0  0  0  0
    6.3543  -12.3710    0.0000 N   0  0  0  0  0  0  0  0  0  0  0  0
    3.1114   -9.2540    0.0000 C   0  0  0  0  0  0  0  0  0  0  0  0
    6.3886  -13.1832    0.0000 N   0  0  0  0  0  0  0  0  0  0  0  0
    5.4048  -14.2756    0.0000 C   0  0  0  0  0  0  0  0  0  0  0  0
    3.8492  -11.1929    0.0000 C   0  0  0  0  0  0  0  0  0  0  0  0
    4.6041  -14.4701    0.0000 C   0  0  0  0  0  0  0  0  0  0  0  0
    2.3164  -12.1137    0.0000 C   0  0  0  0  0  0  0  0  0  0  0  0
    1.0181   -9.6830    0.0000 C   0  0  0  0  0  0  0  0  0  0  0  0
    4.0379  -13.8867    0.0000 C   0  0  0  0  0  0  0  0  0  0  0  0
    3.2143  -11.5704    0.0000 O   0  0  0  0  0  0  0  0  0  0  0  0
    4.3410  -13.1489    0.0000 C   0  0  0  0  0  0  0  0  0  0  0  0
    3.2315  -14.0868    0.0000 C   0  0  0  0  0  0  0  0  0  0  0  0
    2.8883  -12.7028    0.0000 C   0  0  0  0  0  0  0  0  0  0  0  0
    4.5527  -11.4674    0.0000 O   0  0  0  0  0  0  0  0  0  0  0  0
    4.5469  -10.0890    0.0000 C   0  0  0  0  0  0  0  0  0  0  0  0
    3.6890  -12.4969    0.0000 C   0  0  0  0  0  0  0  0  0  0  0  0
    2.6653  -13.4921    0.0000 C   0  0  0  0  0  0  0  0  0  0  0  0
    3.8320   -8.8422    0.0000 C   0  0  0  0  0  0  0  0  0  0  0  0
    5.9768  -14.8590    0.0000 C   0  0  0  0  0  0  0  0  0  0  0  0
    4.3811  -15.2708    0.0000 C   0  0  0  0  0  0  0  0  0  0  0  0
    4.5469   -9.2540    0.0000 C   0  0  0  0  0  0  0  0  0  0  0  0
    0.6063   -8.9623    0.0000 C   0  0  0  0  0  0  0  0  0  0  0  0
   -0.2173   -8.9623    0.0000 O   0  0  0  0  0  0  0  0  0  0  0  0
   -0.6291   -8.2531    0.0000 C   0  0  0  0  0  0  0  0  0  0  0  0
    4.9587  -15.8599    0.0000 C   0  0  0  0  0  0  0  0  0  0  0  0
    5.7537  -15.6540    0.0000 C   0  0  0  0  0  0  0  0  0  0  0  0
  2  1  1  0
  3  1  1  0
  4  2  2  0
  5 12  1  0
  6  3  2  0
  7  8  1  0
  8  5  1  0
  9 11  1  0
 10  3  1  0
 11  5  2  0
 12 14  1  0
 13  6  1  0
 14 17  1  0
 15  1  1  0
 16  2  1  0
 17 20  2  0
 18 13  2  0
 19 24  2  0
 20 25  1  0
 21 15  1  0
 22 13  1  0
 23  6  1  0
 24 21  1  0
 25 21  2  0
 26 10  2  0
 27 12  2  0
 28 14  2  0
 29 26  1  0
 30 16  1  0
 31 30  1  0
 32 31  1  0
 33 28  1  0
 34 33  2  0
 10  4  1  0
 17 19  1  0
 23 29  2  0
 34 27  1  0
  9  7  2  0
M  END
>  <From>  (1) 
www.bindingDB.org

>  <BindingDB Reactant_set_id>  (1) 
50764782

>  <Ligand InChI>  (1) 
InChI=1S/C25H22N6O3/c1-34-14-13-22-26-21-8-4-7-20(25(32)33)23(21)31(22)15-16-9-11-17(12-10-16)18-5-2-3-6-19(18)24-27-29-30-28-24/h2-12H,13-15H2,1H3,(H,32,33)(H,27,28,29,30)

>  <Ligand InChI Key>  (1) 
CQVYWHLMVCYJCP-UHFFFAOYSA-N

>  <BindingDB MonomerID>  (1) 
50044384

>  <BindingDB Ligand Name>  (1) 
2-(2-Methoxy-ethyl)-3-[2'-(1H-tetrazol-5-yl)-biphenyl-4-ylmethyl]-3H-benzoimidazole-4-carboxylic acid::CHEMBL303170

>  <Target Name>  (1) 
Type-1 angiotensin II receptor

>  <Target Source Organism According to Curator or DataSource>  (1) 
Bos taurus

>  <Ki (nM)>  (1) 


>  <IC50 (nM)>  (1) 
 580

>  <Kd (nM)>  (1) 


>  <EC50 (nM)>  (1) 


>  <kon (M-1-s-1)>  (1) 


>  <koff (s-1)>  (1) 


>  <pH>  (1) 


>  <Temp C>  (1) 


>  <Curation/DataSource>  (1) 
ChEMBL

>  <Article DOI>  (1) 
10.1021/jm00067a016

>  <BindingDB Entry DOI>  (1) 
10.7270/Q20Z73X8

>  <PMID>  (1) 
8340921

>  <PubChem AID>  (1) 


>  <Patent Number>  (1) 


>  <Authors>  (1) 
Kubo, K; Kohara, Y; Imamiya, E; Sugiura, Y; Inada, Y; Furukawa, Y; Nishikawa, K; Naka, T

>  <Institution>  (1) 
Takeda Chemical Industries, Ltd

>  <Link to Ligand in BindingDB>  (1) 
http://www.bindingdb.org/bind/chemsearch/marvin/MolStructure.jsp?monomerid=50044384

>  <Link to Ligand-Target Pair in BindingDB>  (1) 
http://www.bindingdb.org/jsp/dbsearch/PrimarySearch_ki.jsp?energyterm=kJ/mole&tag=r21&monomerid=50044384&enzyme=Type-1+angiotensin+II+receptor&column=ki&startPg=0&Increment=50&submit=Search

>  <Ligand HET ID in PDB>  (1) 


>  <PDB ID(s) for Ligand-Target Complex>  (1) 


>  <PubChem CID of Ligand>  (1) 
15654752

>  <PubChem SID of Ligand>  (1) 
103975638

>  <ChEBI ID of Ligand>  (1) 


>  <ChEMBL ID of Ligand>  (1) 
CHEMBL303170

>  <DrugBank ID of Ligand>  (1) 


>  <IUPHAR_GRAC ID of Ligand>  (1) 


>  <KEGG ID of Ligand>  (1) 


>  <ZINC ID of Ligand>  (1) 
ZINC13832277

>  <Number of Protein Chains in Target (bigger than 1 implies a multichain complex)>  (1) 
1

>  <BindingDB Target Chain Sequence>  (1) 
MILNSSTEDGIKRIQDDCPKAGRHNYIFIMIPTLYSIIFVVGIFGNSLVVIVIYFYMKLKTVASVFLLNLALADLCFLLTLPLWAVYTAMEYRWPFGNYLCKIASASVSFNLYASVFLLTCLSIDRYLAIVHPMKSRLRRTMLVAKVTCIIIWLLAGLASLPTIIHRNVFFIENTNITVCAFHYESQNSTLPVGLGLTKNILGFLFPFLIILTSYTLIWKTLKKAYEIQKNKPRKDDIFKIILAIVLFFFFSWVPHQIFTFMDVLIQLGLIRDCKIEDIVDTAMPITICLAYFNNCLNPLFYGFLGKKFKKYFLQLLKYIPPKAKSHSNLSTKMSTLSYRPSENGNSSTKKPAPCIEVE

>  <PDB ID(s) of Target Chain>  (1) 


>  <UniProt (SwissProt) Recommended Name of Target Chain>  (1) 
Type-1 angiotensin II receptor

>  <UniProt (SwissProt) Entry Name of Target Chain>  (1) 
AGTR1_BOVIN

>  <UniProt (SwissProt) Primary ID of Target Chain>  (1) 
P25104

>  <UniProt (SwissProt) Secondary ID(s) of Target Chain>  (1) 


>  <UniProt (SwissProt) Alternative ID(s) of Target Chain>  (1) 


>  <UniProt (TrEMBL) Submitted Name of Target Chain>  (1) 


>  <UniProt (TrEMBL) Entry Name of Target Chain>  (1) 


>  <UniProt (TrEMBL) Primary ID of Target Chain>  (1) 


>  <UniProt (TrEMBL) Secondary ID(s) of Target Chain>  (1) 


>  <UniProt (TrEMBL) Alternative ID(s) of Target Chain>  (1) 


$$$$
