
     RDKit          2D

 51 54  0  0  0  0  0  0  0  0999 V2000
    7.9666   -5.2813    0.0000 S   0  0  0  0  0  0  0  0  0  0  0  0
    4.4056   -4.0320    0.0000 N   0  0  0  0  0  0  0  0  0  0  0  0
    5.0711   -3.5533    0.0000 C   0  0  0  0  0  0  0  0  0  0  0  0
    4.0047   -2.7710    0.0000 N   0  0  0  0  0  0  0  0  0  0  0  0
    4.8259   -2.7710    0.0000 C   0  0  0  0  0  0  0  0  0  0  0  0
    3.7478   -3.5533    0.0000 C   0  0  0  0  0  0  0  0  0  0  0  0
    8.6788   -4.8687    0.0000 N   0  0  0  0  0  0  0  0  0  0  0  0
    7.9666   -6.1063    0.0000 C   0  0  0  0  0  0  0  0  0  0  0  0
    4.4056   -4.8609    0.0000 C   0  0  0  0  0  0  0  0  0  0  0  0
    5.8611   -3.8101    0.0000 C   0  0  0  0  0  0  0  0  0  0  0  0
    9.3910   -5.2813    0.0000 C   0  0  0  0  0  0  0  0  0  0  0  0
    5.1178   -5.2773    0.0000 C   0  0  0  0  0  0  0  0  0  0  0  0
    7.2544   -6.5149    0.0000 C   0  0  0  0  0  0  0  0  0  0  0  0
    6.5422   -6.1063    0.0000 C   0  0  0  0  0  0  0  0  0  0  0  0
    5.1139   -6.0985    0.0000 C   0  0  0  0  0  0  0  0  0  0  0  0
    7.2428   -5.6899    0.0000 O   0  0  0  0  0  0  0  0  0  0  0  0
    7.3789   -4.6975    0.0000 O   0  0  0  0  0  0  0  0  0  0  0  0
    5.8261   -6.5149    0.0000 C   0  0  0  0  0  0  0  0  0  0  0  0
    9.2743   -2.6776    0.0000 C   0  0  0  0  0  0  0  0  0  0  0  0
   10.0566   -2.9345    0.0000 N   0  0  0  0  0  0  0  0  0  0  0  0
    5.8300   -4.8609    0.0000 C   0  0  0  0  0  0  0  0  0  0  0  0
    9.3910   -6.1063    0.0000 O   0  0  0  0  0  0  0  0  0  0  0  0
    6.5422   -5.2773    0.0000 C   0  0  0  0  0  0  0  0  0  0  0  0
    6.0012   -4.3939    0.0000 O   0  0  0  0  0  0  0  0  0  0  0  0
    9.0992   -1.8720    0.0000 O   0  0  0  0  0  0  0  0  0  0  0  0
   10.1110   -4.8687    0.0000 O   0  0  0  0  0  0  0  0  0  0  0  0
    4.3939   -6.5072    0.0000 F   0  0  0  0  0  0  0  0  0  0  0  0
    5.0322   -1.9771    0.0000 C   0  0  0  0  0  0  0  0  0  0  0  0
    6.4722   -3.2614    0.0000 O   0  0  0  0  0  0  0  0  0  0  0  0
    2.9578   -3.7985    0.0000 C   0  0  0  0  0  0  0  0  0  0  0  0
   10.6714   -2.3857    0.0000 C   0  0  0  0  0  0  0  0  0  0  0  0
    8.6788   -6.5149    0.0000 C   0  0  0  0  0  0  0  0  0  0  0  0
   10.8232   -5.2773    0.0000 C   0  0  0  0  0  0  0  0  0  0  0  0
    7.2505   -7.3439    0.0000 C   0  0  0  0  0  0  0  0  0  0  0  0
    8.6555   -3.2264    0.0000 C   0  0  0  0  0  0  0  0  0  0  0  0
    7.2544   -3.5183    0.0000 C   0  0  0  0  0  0  0  0  0  0  0  0
   10.8232   -6.0985    0.0000 C   0  0  0  0  0  0  0  0  0  0  0  0
   11.5393   -6.5149    0.0000 C   0  0  0  0  0  0  0  0  0  0  0  0
   11.4537   -2.6503    0.0000 C   0  0  0  0  0  0  0  0  0  0  0  0
   10.5002   -1.5879    0.0000 C   0  0  0  0  0  0  0  0  0  0  0  0
    2.3507   -3.2497    0.0000 C   0  0  0  0  0  0  0  0  0  0  0  0
    7.8732   -2.9695    0.0000 C   0  0  0  0  0  0  0  0  0  0  0  0
    4.4484   -1.3933    0.0000 C   0  0  0  0  0  0  0  0  0  0  0  0
    8.6788   -7.3439    0.0000 C   0  0  0  0  0  0  0  0  0  0  0  0
    7.9627   -7.7565    0.0000 C   0  0  0  0  0  0  0  0  0  0  0  0
   12.2516   -6.0985    0.0000 C   0  0  0  0  0  0  0  0  0  0  0  0
   11.5393   -7.3362    0.0000 C   0  0  0  0  0  0  0  0  0  0  0  0
    1.5684   -3.5027    0.0000 C   0  0  0  0  0  0  0  0  0  0  0  0
   11.1074   -1.0314    0.0000 C   0  0  0  0  0  0  0  0  0  0  0  0
   12.0647   -2.1016    0.0000 C   0  0  0  0  0  0  0  0  0  0  0  0
   11.9013   -1.2882    0.0000 C   0  0  0  0  0  0  0  0  0  0  0  0
  2  9  1  0
  3  2  1  0
  4  6  2  0
  5  3  2  0
  6  2  1  0
  7  1  1  0
  8  1  1  0
  9 12  1  0
 10  3  1  0
 11  7  1  0
 12 21  2  0
 13  8  2  0
 14 13  1  0
 15 18  2  0
 16  1  2  0
 17  1  2  0
 18 14  1  0
 19 35  1  0
 20 19  1  0
 21 23  1  0
 22 11  2  0
 23 14  2  0
 24 10  2  0
 25 19  2  0
 26 11  1  0
 27 15  1  0
 28  5  1  0
 29 10  1  0
 30  6  1  0
 31 20  1  0
 32  8  1  0
 33 26  1  0
 34 13  1  0
 35 42  1  0
 36 29  1  0
 37 33  1  0
 38 37  1  0
 39 31  2  0
 40 31  1  0
 41 30  1  0
 42 36  1  0
 43 28  1  0
 44 32  2  0
 45 44  1  0
 46 38  1  0
 47 38  1  0
 48 41  1  0
 49 40  2  0
 50 39  1  0
 51 49  1  0
 45 34  2  0
 15 12  1  0
  4  5  1  0
 51 50  2  0
M  END
>  <From>  (1) 
www.bindingDB.org

>  <BindingDB Reactant_set_id>  (1) 
50469118

>  <Ligand InChI>  (1) 
InChI=1S/C38H45FN4O7S/c1-5-13-34-41-32(6-2)36(37(45)49-22-12-18-35(44)40-29-14-8-7-9-15-29)43(34)25-28-20-19-27(24-31(28)39)30-16-10-11-17-33(30)51(47,48)42-38(46)50-23-21-26(3)4/h7-11,14-17,19-20,24,26H,5-6,12-13,18,21-23,25H2,1-4H3,(H,40,44)(H,42,46)

>  <Ligand InChI Key>  (1) 
PBNKWFOVOSXATB-UHFFFAOYSA-N

>  <BindingDB MonomerID>  (1) 
50283228

>  <BindingDB Ligand Name>  (1) 
Biphenylsulfonylcarbamate compound::CHEMBL430792

>  <Target Name>  (1) 
Type-1 angiotensin II receptor

>  <Target Source Organism According to Curator or DataSource>  (1) 
Homo sapiens

>  <Ki (nM)>  (1) 


>  <IC50 (nM)>  (1) 
 0.200000

>  <Kd (nM)>  (1) 


>  <EC50 (nM)>  (1) 


>  <kon (M-1-s-1)>  (1) 


>  <koff (s-1)>  (1) 


>  <pH>  (1) 


>  <Temp C>  (1) 


>  <Curation/DataSource>  (1) 
ChEMBL

>  <Article DOI>  (1) 
10.1016/S0960-894X(00)80077-3

>  <BindingDB Entry DOI>  (1) 
10.7270/Q2DZ088W

>  <PMID>  (1) 


>  <PubChem AID>  (1) 


>  <Patent Number>  (1) 


>  <Authors>  (1) 
Santella, JB; Duncia, JV; Ensinger, CL; VanAtten, MK; Carini, DJ; Wexler, RR; Chiu, AT; Wong, PC; Timmermans, PB

>  <Institution>  (1) 
TBA

>  <Link to Ligand in BindingDB>  (1) 
http://www.bindingdb.org/bind/chemsearch/marvin/MolStructure.jsp?monomerid=50283228

>  <Link to Ligand-Target Pair in BindingDB>  (1) 
http://www.bindingdb.org/jsp/dbsearch/PrimarySearch_ki.jsp?energyterm=kJ/mole&tag=r21&monomerid=50283228&enzyme=Type-1+angiotensin+II+receptor&column=ki&startPg=0&Increment=50&submit=Search

>  <Ligand HET ID in PDB>  (1) 


>  <PDB ID(s) for Ligand-Target Complex>  (1) 


>  <PubChem CID of Ligand>  (1) 
44311581

>  <PubChem SID of Ligand>  (1) 
104124902

>  <ChEBI ID of Ligand>  (1) 


>  <ChEMBL ID of Ligand>  (1) 
CHEMBL430792

>  <DrugBank ID of Ligand>  (1) 


>  <IUPHAR_GRAC ID of Ligand>  (1) 


>  <KEGG ID of Ligand>  (1) 


>  <ZINC ID of Ligand>  (1) 
ZINC26286173

>  <Number of Protein Chains in Target (bigger than 1 implies a multichain complex)>  (1) 
1

>  <BindingDB Target Chain Sequence>  (1) 
MILNSSTEDGIKRIQDDCPKAGRHNYIFVMIPTLYSIIFVVGIFGNSLVVIVIYFYMKLKTVASVFLLNLALADLCFLLTLPLWAVYTAMEYRWPFGNYLCKIASASVSFNLYASVFLLTCLSIDRYLAIVHPMKSRLRRTMLVAKVTCIIIWLLAGLASLPAIIHRNVFFIENTNITVCAFHYESQNSTLPIGLGLTKNILGFLFPFLIILTSYTLIWKALKKAYEIQKNKPRNDDIFKIIMAIVLFFFFSWIPHQIFTFLDVLIQLGIIRDCRIADIVDTAMPITICIAYFNNCLNPLFYGFLGKKFKRYFLQLLKYIPPKAKSHSNLSTKMSTLSYRPSDNVSSSTKKPAPCFEVE

>  <PDB ID(s) of Target Chain>  (1) 
6DO1,6OS0,6OS1,6OS2

>  <UniProt (SwissProt) Recommended Name of Target Chain>  (1) 
Type-1 angiotensin II receptor

>  <UniProt (SwissProt) Entry Name of Target Chain>  (1) 
AGTR1_HUMAN

>  <UniProt (SwissProt) Primary ID of Target Chain>  (1) 
P30556

>  <UniProt (SwissProt) Secondary ID(s) of Target Chain>  (1) 
Q13725 Q8TBK4

>  <UniProt (SwissProt) Alternative ID(s) of Target Chain>  (1) 


>  <UniProt (TrEMBL) Submitted Name of Target Chain>  (1) 


>  <UniProt (TrEMBL) Entry Name of Target Chain>  (1) 


>  <UniProt (TrEMBL) Primary ID of Target Chain>  (1) 


>  <UniProt (TrEMBL) Secondary ID(s) of Target Chain>  (1) 


>  <UniProt (TrEMBL) Alternative ID(s) of Target Chain>  (1) 


$$$$
