
     RDKit          2D

 46 50  0  0  0  0  0  0  0  0999 V2000
    7.2567    0.6012    0.0000 S   0  0  0  0  0  0  0  0  0  0  0  0
    2.9728    0.5970    0.0000 N   0  0  0  0  0  0  0  0  0  0  0  0
    2.2463    1.0104    0.0000 C   0  0  0  0  0  0  0  0  0  0  0  0
    7.2525    1.4280    0.0000 N   0  0  0  0  0  0  0  0  0  0  0  0
    1.5324    0.5970    0.0000 C   0  0  0  0  0  0  0  0  0  0  0  0
    2.9728   -0.2380    0.0000 C   0  0  0  0  0  0  0  0  0  0  0  0
    2.2463   -0.6513    0.0000 N   0  0  0  0  0  0  0  0  0  0  0  0
    7.9707    1.8413    0.0000 C   0  0  0  0  0  0  0  0  0  0  0  0
    1.5324   -0.2422    0.0000 C   0  0  0  0  0  0  0  0  0  0  0  0
    7.2567   -0.2171    0.0000 C   0  0  0  0  0  0  0  0  0  0  0  0
    3.6868    1.0104    0.0000 C   0  0  0  0  0  0  0  0  0  0  0  0
    8.6847    1.4280    0.0000 C   0  0  0  0  0  0  0  0  0  0  0  0
    4.4008    0.5970    0.0000 C   0  0  0  0  0  0  0  0  0  0  0  0
    6.5427   -0.6388    0.0000 C   0  0  0  0  0  0  0  0  0  0  0  0
    5.8288   -0.2297    0.0000 C   0  0  0  0  0  0  0  0  0  0  0  0
   -1.3235    0.5845    0.0000 C   0  0  0  0  0  0  0  0  0  0  0  0
    5.1148    1.0104    0.0000 C   0  0  0  0  0  0  0  0  0  0  0  0
    6.4300    0.6012    0.0000 O   0  0  0  0  0  0  0  0  0  0  0  0
    8.0834    0.6012    0.0000 O   0  0  0  0  0  0  0  0  0  0  0  0
    5.8288    0.5970    0.0000 C   0  0  0  0  0  0  0  0  0  0  0  0
    0.8184    1.0021    0.0000 C   0  0  0  0  0  0  0  0  0  0  0  0
   -0.6096    0.9979    0.0000 N   0  0  0  0  0  0  0  0  0  0  0  0
    2.2463    1.8371    0.0000 O   0  0  0  0  0  0  0  0  0  0  0  0
    9.3986    1.8496    0.0000 C   0  0  0  0  0  0  0  0  0  0  0  0
    7.9665    2.6680    0.0000 O   0  0  0  0  0  0  0  0  0  0  0  0
    0.1044    0.5845    0.0000 C   0  0  0  0  0  0  0  0  0  0  0  0
    4.4008   -0.2297    0.0000 C   0  0  0  0  0  0  0  0  0  0  0  0
   -1.3235   -0.2422    0.0000 O   0  0  0  0  0  0  0  0  0  0  0  0
    5.1148   -0.6430    0.0000 C   0  0  0  0  0  0  0  0  0  0  0  0
    0.8184   -0.6513    0.0000 C   0  0  0  0  0  0  0  0  0  0  0  0
   -2.0417    0.9979    0.0000 N   0  0  0  0  0  0  0  0  0  0  0  0
    5.1106    1.8371    0.0000 F   0  0  0  0  0  0  0  0  0  0  0  0
    0.1044   -0.2422    0.0000 C   0  0  0  0  0  0  0  0  0  0  0  0
    9.3944    2.6763    0.0000 F   0  0  0  0  0  0  0  0  0  0  0  0
    3.6868   -0.6513    0.0000 C   0  0  0  0  0  0  0  0  0  0  0  0
    8.6847    0.6012    0.0000 C   0  0  0  0  0  0  0  0  0  0  0  0
    7.9707   -0.6305    0.0000 C   0  0  0  0  0  0  0  0  0  0  0  0
    6.5427   -1.4697    0.0000 C   0  0  0  0  0  0  0  0  0  0  0  0
   10.1126    1.4363    0.0000 C   0  0  0  0  0  0  0  0  0  0  0  0
   -2.7557    0.5845    0.0000 C   0  0  0  0  0  0  0  0  0  0  0  0
    3.6868   -1.4781    0.0000 C   0  0  0  0  0  0  0  0  0  0  0  0
    9.3986    0.1962    0.0000 C   0  0  0  0  0  0  0  0  0  0  0  0
    7.2650   -1.8789    0.0000 C   0  0  0  0  0  0  0  0  0  0  0  0
    7.9790   -1.4655    0.0000 C   0  0  0  0  0  0  0  0  0  0  0  0
   -3.4780    0.9979    0.0000 C   0  0  0  0  0  0  0  0  0  0  0  0
   10.1126    0.6096    0.0000 C   0  0  0  0  0  0  0  0  0  0  0  0
  2 11  1  0
  3  2  1  0
  4  1  1  0
  5  3  1  0
  6  2  1  0
  7  6  2  0
  8  4  1  0
  9  7  1  0
 10  1  1  0
 11 13  1  0
 12  8  1  0
 13 27  2  0
 14 10  1  0
 15 14  1  0
 16 22  1  0
 17 20  2  0
 18  1  2  0
 19  1  2  0
 20 15  1  0
 21  5  2  0
 22 26  1  0
 23  3  2  0
 24 12  2  0
 25  8  2  0
 26 21  1  0
 27 29  1  0
 28 16  2  0
 29 15  2  0
 30  9  2  0
 31 16  1  0
 32 17  1  0
 33 30  1  0
 34 24  1  0
 35  6  1  0
 36 12  1  0
 37 10  2  0
 38 14  2  0
 39 24  1  0
 40 31  1  0
 41 35  1  0
 42 36  2  0
 43 44  2  0
 44 37  1  0
 45 40  1  0
 46 42  1  0
 43 38  1  0
 13 17  1  0
 46 39  2  0
  9  5  1  0
 33 26  2  0
M  END
>  <From>  (1) 
www.bindingDB.org

>  <BindingDB Reactant_set_id>  (1) 
50469372

>  <Ligand InChI>  (1) 
InChI=1S/C33H29F2N5O5S/c1-3-30-38-28-16-15-22(37-33(43)36-4-2)18-25(28)32(42)40(30)19-21-14-13-20(17-27(21)35)23-9-6-8-12-29(23)46(44,45)39-31(41)24-10-5-7-11-26(24)34/h5-18H,3-4,19H2,1-2H3,(H,39,41)(H2,36,37,43)

>  <Ligand InChI Key>  (1) 
PDKBQXLATJDSCB-UHFFFAOYSA-N

>  <BindingDB MonomerID>  (1) 
50283313

>  <BindingDB Ligand Name>  (1) 
4'-[2-Ethyl-6-(3-ethyl-ureido)-4-oxo-4H-quinazolin-3-ylmethyl]-3'-fluoro-biphenyl-2-sulfonic acid 2-fluoro-benzoylamide::CHEMBL311484

>  <Target Name>  (1) 
Type-1 angiotensin II receptor

>  <Target Source Organism According to Curator or DataSource>  (1) 
Oryctolagus cuniculus

>  <Ki (nM)>  (1) 


>  <IC50 (nM)>  (1) 
 4

>  <Kd (nM)>  (1) 


>  <EC50 (nM)>  (1) 


>  <kon (M-1-s-1)>  (1) 


>  <koff (s-1)>  (1) 


>  <pH>  (1) 


>  <Temp C>  (1) 


>  <Curation/DataSource>  (1) 
ChEMBL

>  <Article DOI>  (1) 
10.1016/0960-894X(94)85036-4

>  <BindingDB Entry DOI>  (1) 
10.7270/Q2X066Z9

>  <PMID>  (1) 


>  <PubChem AID>  (1) 


>  <Patent Number>  (1) 


>  <Authors>  (1) 
Glinka, TW; de Laszlo, SE; Siegl, PK; Chang, RS; Kivlighn, SD; Schorn, TS; Faust, KA; Chen, TB; Zingaro, GJ; Lotti, VJ; Greenlee, WJ

>  <Institution>  (1) 
TBA

>  <Link to Ligand in BindingDB>  (1) 
http://www.bindingdb.org/bind/chemsearch/marvin/MolStructure.jsp?monomerid=50283313

>  <Link to Ligand-Target Pair in BindingDB>  (1) 
http://www.bindingdb.org/jsp/dbsearch/PrimarySearch_ki.jsp?energyterm=kJ/mole&tag=r21&monomerid=50283313&enzyme=Type-1+angiotensin+II+receptor&column=ki&startPg=0&Increment=50&submit=Search

>  <Ligand HET ID in PDB>  (1) 


>  <PDB ID(s) for Ligand-Target Complex>  (1) 


>  <PubChem CID of Ligand>  (1) 
44315350

>  <PubChem SID of Ligand>  (1) 
104124970

>  <ChEBI ID of Ligand>  (1) 


>  <ChEMBL ID of Ligand>  (1) 
CHEMBL311484

>  <DrugBank ID of Ligand>  (1) 


>  <IUPHAR_GRAC ID of Ligand>  (1) 


>  <KEGG ID of Ligand>  (1) 


>  <ZINC ID of Ligand>  (1) 
ZINC26400683

>  <Number of Protein Chains in Target (bigger than 1 implies a multichain complex)>  (1) 
1

>  <BindingDB Target Chain Sequence>  (1) 
MMLNSSTEDGIKRIQDDCPKAGRHNYIFVMIPTLYSIIFVVGIFGNSLAVIVIYFYMKLKTVASVFLLNLALADLCFLLTLPLWAVYTAMEYRWPFGNYLCKIASASVSFNLYASVFLLTCLSIDRYLAIVHPMKSRLRRTMLVAKVTCIIIWLLAGLASLPAIIHRNVFFIENTNITVCAFHYESQNSTLPIGLGLTKNILGFLFPFLIILTSYTLIWKALKKAYEIQKNKPRNDDIFKIIMAIVLFFFFSWVPHQIFTFLDVLIQLGVIHDCRIADIVDTAMPITICIAYFNNCLNPLFYGFLGKKFKKYFLQLLKYIPPKAKSHSNLSTKMSTLSYRPSDNVSSSSKKPVPCFEVE

>  <PDB ID(s) of Target Chain>  (1) 
6DO1,6OS0,6OS1,6OS2

>  <UniProt (SwissProt) Recommended Name of Target Chain>  (1) 
Type-1 angiotensin II receptor

>  <UniProt (SwissProt) Entry Name of Target Chain>  (1) 
AGTR1_RABIT

>  <UniProt (SwissProt) Primary ID of Target Chain>  (1) 
P34976

>  <UniProt (SwissProt) Secondary ID(s) of Target Chain>  (1) 


>  <UniProt (SwissProt) Alternative ID(s) of Target Chain>  (1) 


>  <UniProt (TrEMBL) Submitted Name of Target Chain>  (1) 


>  <UniProt (TrEMBL) Entry Name of Target Chain>  (1) 


>  <UniProt (TrEMBL) Primary ID of Target Chain>  (1) 


>  <UniProt (TrEMBL) Secondary ID(s) of Target Chain>  (1) 


>  <UniProt (TrEMBL) Alternative ID(s) of Target Chain>  (1) 


$$$$
