
     RDKit          2D

 33 37  0  0  0  0  0  0  0  0999 V2000
    2.2417   -2.1042    0.0000 N   0  0  0  0  0  0  0  0  0  0  0  0
    2.2375   -1.1292    0.0000 N   0  0  0  0  0  0  0  0  0  0  0  0
    1.8875   -1.6167    0.0000 C   0  0  0  0  0  0  0  0  0  0  0  0
    2.8042   -1.3167    0.0000 C   0  0  0  0  0  0  0  0  0  0  0  0
    4.4292   -3.7500    0.0000 C   0  0  0  0  0  0  0  0  0  0  0  0
    4.2917   -2.7875    0.0000 N   0  0  0  0  0  0  0  0  0  0  0  0
    4.0125   -3.3167    0.0000 N   0  0  0  0  0  0  0  0  0  0  0  0
    4.8792   -2.8875    0.0000 N   0  0  0  0  0  0  0  0  0  0  0  0
    2.8125   -1.9167    0.0000 C   0  0  0  0  0  0  0  0  0  0  0  0
    4.9667   -3.4792    0.0000 N   0  0  0  0  0  0  0  0  0  0  0  0
    4.2542   -4.3167    0.0000 C   0  0  0  0  0  0  0  0  0  0  0  0
    3.6667   -4.4417    0.0000 C   0  0  0  0  0  0  0  0  0  0  0  0
    3.3292   -1.0125    0.0000 C   0  0  0  0  0  0  0  0  0  0  0  0
    2.0542   -2.6750    0.0000 C   0  0  0  0  0  0  0  0  0  0  0  0
    3.3292   -2.2167    0.0000 C   0  0  0  0  0  0  0  0  0  0  0  0
    3.2667   -4.0042    0.0000 C   0  0  0  0  0  0  0  0  0  0  0  0
    2.6792   -4.1292    0.0000 C   0  0  0  0  0  0  0  0  0  0  0  0
    3.4417   -3.4292    0.0000 C   0  0  0  0  0  0  0  0  0  0  0  0
    3.8500   -1.3125    0.0000 C   0  0  0  0  0  0  0  0  0  0  0  0
    2.4625   -3.1167    0.0000 C   0  0  0  0  0  0  0  0  0  0  0  0
    3.8500   -1.9167    0.0000 C   0  0  0  0  0  0  0  0  0  0  0  0
    1.2875   -1.6167    0.0000 C   0  0  0  0  0  0  0  0  0  0  0  0
    2.2750   -3.6917    0.0000 C   0  0  0  0  0  0  0  0  0  0  0  0
    3.0417   -2.9917    0.0000 C   0  0  0  0  0  0  0  0  0  0  0  0
    4.3667   -1.0042    0.0000 O   0  0  0  0  0  0  0  0  0  0  0  0
    4.6542   -4.7625    0.0000 C   0  0  0  0  0  0  0  0  0  0  0  0
    3.4792   -5.0167    0.0000 C   0  0  0  0  0  0  0  0  0  0  0  0
    4.3625   -0.4042    0.0000 C   0  0  0  0  0  0  0  0  0  0  0  0
    0.9875   -1.1042    0.0000 C   0  0  0  0  0  0  0  0  0  0  0  0
    0.3875   -1.1042    0.0000 C   0  0  0  0  0  0  0  0  0  0  0  0
    3.8875   -5.4625    0.0000 C   0  0  0  0  0  0  0  0  0  0  0  0
    4.4750   -5.3375    0.0000 C   0  0  0  0  0  0  0  0  0  0  0  0
    0.0792   -0.5875    0.0000 C   0  0  0  0  0  0  0  0  0  0  0  0
  2  3  2  0
  3  1  1  0
  4  9  2  0
  5 11  1  0
  6  7  2  0
  7  5  1  0
  8 10  1  0
  9  1  1  0
 10  5  2  0
 11 12  1  0
 12 16  1  0
 13  4  1  0
 14  1  1  0
 15  9  1  0
 16 18  2  0
 17 23  2  0
 18 24  1  0
 19 21  1  0
 20 14  1  0
 21 15  2  0
 22  3  1  0
 23 20  1  0
 24 20  2  0
 25 19  1  0
 26 11  2  0
 27 12  2  0
 28 25  1  0
 29 22  1  0
 30 29  1  0
 31 27  1  0
 32 31  2  0
 33 30  1  0
  4  2  1  0
 17 16  1  0
 19 13  2  0
 26 32  1  0
  8  6  1  0
M  END
>  <From>  (1) 
www.bindingDB.org

>  <BindingDB Reactant_set_id>  (1) 
51185890

>  <Ligand InChI>  (1) 
InChI=1S/C26H26N6O/c1-3-4-9-25-27-23-16-20(33-2)14-15-24(23)32(25)17-18-10-12-19(13-11-18)21-7-5-6-8-22(21)26-28-30-31-29-26/h5-8,10-16H,3-4,9,17H2,1-2H3,(H,28,29,30,31)

>  <Ligand InChI Key>  (1) 
HBSLDOJMYCLNOV-UHFFFAOYSA-N

>  <BindingDB MonomerID>  (1) 
50487606

>  <BindingDB Ligand Name>  (1) 
CHEMBL51349

>  <Target Name>  (1) 
Type-1 angiotensin II receptor

>  <Target Source Organism According to Curator or DataSource>  (1) 
Bos taurus

>  <Ki (nM)>  (1) 


>  <IC50 (nM)>  (1) 
 910

>  <Kd (nM)>  (1) 


>  <EC50 (nM)>  (1) 


>  <kon (M-1-s-1)>  (1) 


>  <koff (s-1)>  (1) 


>  <pH>  (1) 


>  <Temp C>  (1) 


>  <Curation/DataSource>  (1) 
ChEMBL

>  <Article DOI>  (1) 
10.1007/s00044-009-9182-z

>  <BindingDB Entry DOI>  (1) 
10.7270/Q2RN3BR4

>  <PMID>  (1) 


>  <PubChem AID>  (1) 


>  <Patent Number>  (1) 


>  <Authors>  (1) 
n/a

>  <Institution>  (1) 
n/a

>  <Link to Ligand in BindingDB>  (1) 
http://www.bindingdb.org/bind/chemsearch/marvin/MolStructure.jsp?monomerid=50487606

>  <Link to Ligand-Target Pair in BindingDB>  (1) 
http://www.bindingdb.org/jsp/dbsearch/PrimarySearch_ki.jsp?energyterm=kJ/mole&tag=r21&monomerid=50487606&enzyme=Type-1+angiotensin+II+receptor&column=ki&startPg=0&Increment=50&submit=Search

>  <Ligand HET ID in PDB>  (1) 


>  <PDB ID(s) for Ligand-Target Complex>  (1) 


>  <PubChem CID of Ligand>  (1) 
19792185

>  <PubChem SID of Ligand>  (1) 
433954871

>  <ChEBI ID of Ligand>  (1) 


>  <ChEMBL ID of Ligand>  (1) 


>  <DrugBank ID of Ligand>  (1) 


>  <IUPHAR_GRAC ID of Ligand>  (1) 


>  <KEGG ID of Ligand>  (1) 


>  <ZINC ID of Ligand>  (1) 


>  <Number of Protein Chains in Target (bigger than 1 implies a multichain complex)>  (1) 
1

>  <BindingDB Target Chain Sequence>  (1) 
MILNSSTEDGIKRIQDDCPKAGRHNYIFIMIPTLYSIIFVVGIFGNSLVVIVIYFYMKLKTVASVFLLNLALADLCFLLTLPLWAVYTAMEYRWPFGNYLCKIASASVSFNLYASVFLLTCLSIDRYLAIVHPMKSRLRRTMLVAKVTCIIIWLLAGLASLPTIIHRNVFFIENTNITVCAFHYESQNSTLPVGLGLTKNILGFLFPFLIILTSYTLIWKTLKKAYEIQKNKPRKDDIFKIILAIVLFFFFSWVPHQIFTFMDVLIQLGLIRDCKIEDIVDTAMPITICLAYFNNCLNPLFYGFLGKKFKKYFLQLLKYIPPKAKSHSNLSTKMSTLSYRPSENGNSSTKKPAPCIEVE

>  <PDB ID(s) of Target Chain>  (1) 


>  <UniProt (SwissProt) Recommended Name of Target Chain>  (1) 
Type-1 angiotensin II receptor

>  <UniProt (SwissProt) Entry Name of Target Chain>  (1) 
AGTR1_BOVIN

>  <UniProt (SwissProt) Primary ID of Target Chain>  (1) 
P25104

>  <UniProt (SwissProt) Secondary ID(s) of Target Chain>  (1) 


>  <UniProt (SwissProt) Alternative ID(s) of Target Chain>  (1) 


>  <UniProt (TrEMBL) Submitted Name of Target Chain>  (1) 


>  <UniProt (TrEMBL) Entry Name of Target Chain>  (1) 


>  <UniProt (TrEMBL) Primary ID of Target Chain>  (1) 


>  <UniProt (TrEMBL) Secondary ID(s) of Target Chain>  (1) 


>  <UniProt (TrEMBL) Alternative ID(s) of Target Chain>  (1) 


$$$$
