
     RDKit          2D

 30 33  0  0  0  0  0  0  0  0999 V2000
    4.6400    0.8183    0.0000 C   0  0  0  0  0  0  0  0  0  0  0  0
    5.3503    0.3946    0.0000 N   0  0  0  0  0  0  0  0  0  0  0  0
    9.6372    0.3739    0.0000 N   0  0  0  0  0  0  0  0  0  0  0  0
    8.9518    0.8183    0.0000 N   0  0  0  0  0  0  0  0  0  0  0  0
    9.1636    1.6200    0.0000 N   0  0  0  0  0  0  0  0  0  0  0  0
    4.3534   -0.4860    0.0000 N   0  0  0  0  0  0  0  0  0  0  0  0
    4.0169    0.2700    0.0000 C   0  0  0  0  0  0  0  0  0  0  0  0
    9.9861    1.6657    0.0000 N   0  0  0  0  0  0  0  0  0  0  0  0
    5.1717   -0.4112    0.0000 C   0  0  0  0  0  0  0  0  0  0  0  0
    9.6455   -0.4486    0.0000 C   0  0  0  0  0  0  0  0  0  0  0  0
    4.5652    1.6408    0.0000 C   0  0  0  0  0  0  0  0  0  0  0  0
   10.2852    0.8973    0.0000 C   0  0  0  0  0  0  0  0  0  0  0  0
    8.9269   -0.8599    0.0000 C   0  0  0  0  0  0  0  0  0  0  0  0
    6.0731    0.8058    0.0000 C   0  0  0  0  0  0  0  0  0  0  0  0
    8.2165   -0.4486    0.0000 C   0  0  0  0  0  0  0  0  0  0  0  0
    5.2382    2.1143    0.0000 O   0  0  0  0  0  0  0  0  0  0  0  0
    8.2165    0.3821    0.0000 C   0  0  0  0  0  0  0  0  0  0  0  0
    7.5062   -0.8599    0.0000 C   0  0  0  0  0  0  0  0  0  0  0  0
    6.7959    0.3821    0.0000 C   0  0  0  0  0  0  0  0  0  0  0  0
    3.8175    1.9897    0.0000 O   0  0  0  0  0  0  0  0  0  0  0  0
    6.7959   -0.4486    0.0000 C   0  0  0  0  0  0  0  0  0  0  0  0
    7.5062    0.7934    0.0000 C   0  0  0  0  0  0  0  0  0  0  0  0
    5.7075   -1.0343    0.0000 C   0  0  0  0  0  0  0  0  0  0  0  0
   10.3600   -0.8599    0.0000 C   0  0  0  0  0  0  0  0  0  0  0  0
    8.9351   -1.6865    0.0000 C   0  0  0  0  0  0  0  0  0  0  0  0
    5.4376   -1.8070    0.0000 C   0  0  0  0  0  0  0  0  0  0  0  0
    5.9734   -2.4342    0.0000 C   0  0  0  0  0  0  0  0  0  0  0  0
   10.3600   -1.6865    0.0000 C   0  0  0  0  0  0  0  0  0  0  0  0
    9.6372   -2.0978    0.0000 C   0  0  0  0  0  0  0  0  0  0  0  0
    5.6993   -3.2069    0.0000 C   0  0  0  0  0  0  0  0  0  0  0  0
  2  1  1  0
  3 10  1  0
  4  3  1  0
  5  4  2  0
  6  7  1  0
  7  1  2  0
  8 12  2  0
  9  2  1  0
 10 13  1  0
 11  1  1  0
 12  3  1  0
 13 15  1  0
 14  2  1  0
 15 17  2  0
 16 11  2  0
 17 22  1  0
 18 21  2  0
 19 14  1  0
 20 11  1  0
 21 19  1  0
 22 19  2  0
 23  9  1  0
 24 10  2  0
 25 13  2  0
 26 23  1  0
 27 26  1  0
 28 29  2  0
 29 25  1  0
 30 27  1  0
  9  6  2  0
 15 18  1  0
 24 28  1  0
  8  5  1  0
M  END
>  <From>  (1) 
www.bindingDB.org

>  <BindingDB Reactant_set_id>  (1) 
50002768

>  <Ligand InChI>  (1) 
InChI=1S/C22H22N6O2/c1-2-3-8-21-23-13-20(22(29)30)27(21)14-16-9-11-17(12-10-16)18-6-4-5-7-19(18)28-15-24-25-26-28/h4-7,9-13,15H,2-3,8,14H2,1H3,(H,29,30)

>  <Ligand InChI Key>  (1) 
OYTARQUBYJLZTG-UHFFFAOYSA-N

>  <BindingDB MonomerID>  (1) 
50282412

>  <BindingDB Ligand Name>  (1) 
2-Butyl-3-(2'-tetrazol-1-yl-biphenyl-4-ylmethyl)-3H-imidazole-4-carboxylic acid::CHEMBL349389

>  <Target Name>  (1) 
Type-1 angiotensin II receptor

>  <Target Source Organism According to Curator or DataSource>  (1) 
Oryctolagus cuniculus

>  <Ki (nM)>  (1) 


>  <IC50 (nM)>  (1) 
 2.9

>  <Kd (nM)>  (1) 


>  <EC50 (nM)>  (1) 


>  <kon (M-1-s-1)>  (1) 


>  <koff (s-1)>  (1) 


>  <pH>  (1) 


>  <Temp C>  (1) 


>  <Curation/DataSource>  (1) 
ChEMBL

>  <Article DOI>  (1) 
10.1016/S0960-894X(01)81124-0

>  <BindingDB Entry DOI>  (1) 
10.7270/Q2NS0TVK

>  <PMID>  (1) 


>  <PubChem AID>  (1) 


>  <Patent Number>  (1) 


>  <Authors>  (1) 
Naylor, EM; Chakravarty, PK; Costello, CA; Chang, RS; Chen, TB; Faust, KA; Lotti, VJ; Kivlighn, SD; Zingaro, GJ; Siegl, PK; Wong, PC; Carini, DJ; Wexler, RR; Patchett, AA; Greenlee, WJ

>  <Institution>  (1) 
TBA

>  <Link to Ligand in BindingDB>  (1) 
http://www.bindingdb.org/bind/chemsearch/marvin/MolStructure.jsp?monomerid=50282412

>  <Link to Ligand-Target Pair in BindingDB>  (1) 
http://www.bindingdb.org/jsp/dbsearch/PrimarySearch_ki.jsp?energyterm=kJ/mole&tag=r21&monomerid=50282412&enzyme=Type-1+angiotensin+II+receptor&column=ki&startPg=0&Increment=50&submit=Search

>  <Ligand HET ID in PDB>  (1) 


>  <PDB ID(s) for Ligand-Target Complex>  (1) 


>  <PubChem CID of Ligand>  (1) 
44377261

>  <PubChem SID of Ligand>  (1) 
104124086

>  <ChEBI ID of Ligand>  (1) 


>  <ChEMBL ID of Ligand>  (1) 
CHEMBL349389

>  <DrugBank ID of Ligand>  (1) 


>  <IUPHAR_GRAC ID of Ligand>  (1) 


>  <KEGG ID of Ligand>  (1) 


>  <ZINC ID of Ligand>  (1) 
ZINC27861450

>  <Number of Protein Chains in Target (bigger than 1 implies a multichain complex)>  (1) 
1

>  <BindingDB Target Chain Sequence>  (1) 
MMLNSSTEDGIKRIQDDCPKAGRHNYIFVMIPTLYSIIFVVGIFGNSLAVIVIYFYMKLKTVASVFLLNLALADLCFLLTLPLWAVYTAMEYRWPFGNYLCKIASASVSFNLYASVFLLTCLSIDRYLAIVHPMKSRLRRTMLVAKVTCIIIWLLAGLASLPAIIHRNVFFIENTNITVCAFHYESQNSTLPIGLGLTKNILGFLFPFLIILTSYTLIWKALKKAYEIQKNKPRNDDIFKIIMAIVLFFFFSWVPHQIFTFLDVLIQLGVIHDCRIADIVDTAMPITICIAYFNNCLNPLFYGFLGKKFKKYFLQLLKYIPPKAKSHSNLSTKMSTLSYRPSDNVSSSSKKPVPCFEVE

>  <PDB ID(s) of Target Chain>  (1) 
6DO1,6OS0,6OS1,6OS2

>  <UniProt (SwissProt) Recommended Name of Target Chain>  (1) 
Type-1 angiotensin II receptor

>  <UniProt (SwissProt) Entry Name of Target Chain>  (1) 
AGTR1_RABIT

>  <UniProt (SwissProt) Primary ID of Target Chain>  (1) 
P34976

>  <UniProt (SwissProt) Secondary ID(s) of Target Chain>  (1) 


>  <UniProt (SwissProt) Alternative ID(s) of Target Chain>  (1) 


>  <UniProt (TrEMBL) Submitted Name of Target Chain>  (1) 


>  <UniProt (TrEMBL) Entry Name of Target Chain>  (1) 


>  <UniProt (TrEMBL) Primary ID of Target Chain>  (1) 


>  <UniProt (TrEMBL) Secondary ID(s) of Target Chain>  (1) 


>  <UniProt (TrEMBL) Alternative ID(s) of Target Chain>  (1) 


$$$$
