
     RDKit          2D

 54 59  0  0  0  0  0  0  0  0999 V2000
    7.0585   -0.1541    0.0000 S   0  0  0  0  0  0  0  0  0  0  0  0
    7.6706   -3.9020    0.0000 N   0  0  0  0  0  0  0  0  0  0  0  0
    6.9502   -3.4897    0.0000 C   0  0  0  0  0  0  0  0  0  0  0  0
    6.3339   -0.5539    0.0000 N   0  0  0  0  0  0  0  0  0  0  0  0
    6.2381   -3.9020    0.0000 C   0  0  0  0  0  0  0  0  0  0  0  0
    7.6706   -4.7348    0.0000 C   0  0  0  0  0  0  0  0  0  0  0  0
    6.9502   -5.1470    0.0000 N   0  0  0  0  0  0  0  0  0  0  0  0
    7.7872    0.2332    0.0000 C   0  0  0  0  0  0  0  0  0  0  0  0
    4.1018   -3.4980    0.0000 N   0  0  0  0  0  0  0  0  0  0  0  0
    6.2381   -4.7265    0.0000 C   0  0  0  0  0  0  0  0  0  0  0  0
    3.3856   -3.9103    0.0000 C   0  0  0  0  0  0  0  0  0  0  0  0
    8.4826   -0.2041    0.0000 C   0  0  0  0  0  0  0  0  0  0  0  0
    5.5260   -3.4897    0.0000 C   0  0  0  0  0  0  0  0  0  0  0  0
    4.8139   -3.9103    0.0000 C   0  0  0  0  0  0  0  0  0  0  0  0
    5.6260   -0.1166    0.0000 C   0  0  0  0  0  0  0  0  0  0  0  0
    6.3589    0.2748    0.0000 O   0  0  0  0  0  0  0  0  0  0  0  0
    7.0335   -0.9786    0.0000 O   0  0  0  0  0  0  0  0  0  0  0  0
    8.3869   -3.4980    0.0000 C   0  0  0  0  0  0  0  0  0  0  0  0
    7.8122    1.0494    0.0000 C   0  0  0  0  0  0  0  0  0  0  0  0
    8.4494   -1.0286    0.0000 C   0  0  0  0  0  0  0  0  0  0  0  0
    3.3856   -4.7348    0.0000 O   0  0  0  0  0  0  0  0  0  0  0  0
    6.9502   -2.6652    0.0000 O   0  0  0  0  0  0  0  0  0  0  0  0
    9.2114    0.1832    0.0000 C   0  0  0  0  0  0  0  0  0  0  0  0
    2.6735   -3.4980    0.0000 O   0  0  0  0  0  0  0  0  0  0  0  0
    5.5260   -5.1470    0.0000 C   0  0  0  0  0  0  0  0  0  0  0  0
    4.8139   -4.7348    0.0000 C   0  0  0  0  0  0  0  0  0  0  0  0
    5.6510    0.7079    0.0000 O   0  0  0  0  0  0  0  0  0  0  0  0
    9.1490   -1.4659    0.0000 C   0  0  0  0  0  0  0  0  0  0  0  0
    7.7206   -1.4159    0.0000 C   0  0  0  0  0  0  0  0  0  0  0  0
    8.3869   -2.6735    0.0000 C   0  0  0  0  0  0  0  0  0  0  0  0
    8.5451    1.4450    0.0000 C   0  0  0  0  0  0  0  0  0  0  0  0
    9.2447    0.9994    0.0000 C   0  0  0  0  0  0  0  0  0  0  0  0
    2.6735   -5.1470    0.0000 C   0  0  0  0  0  0  0  0  0  0  0  0
    8.3827   -5.1470    0.0000 C   0  0  0  0  0  0  0  0  0  0  0  0
    4.0976   -2.6735    0.0000 C   0  0  0  0  0  0  0  0  0  0  0  0
    7.6873   -2.2404    0.0000 C   0  0  0  0  0  0  0  0  0  0  0  0
    9.1198   -2.2904    0.0000 C   0  0  0  0  0  0  0  0  0  0  0  0
    2.6735   -5.9716    0.0000 C   0  0  0  0  0  0  0  0  0  0  0  0
    4.7723   -0.5914    0.0000 C   0  0  0  0  0  0  0  0  0  0  0  0
    9.9735    1.3867    0.0000 C   0  0  0  0  0  0  0  0  0  0  0  0
    1.9531   -6.3755    0.0000 C   0  0  0  0  0  0  0  0  0  0  0  0
    3.3856   -6.3755    0.0000 C   0  0  0  0  0  0  0  0  0  0  0  0
    8.3827   -5.9716    0.0000 C   0  0  0  0  0  0  0  0  0  0  0  0
   10.6731    0.9495    0.0000 C   0  0  0  0  0  0  0  0  0  0  0  0
    3.3398   -2.3404    0.0000 C   0  0  0  0  0  0  0  0  0  0  0  0
    3.7104    0.1874    0.0000 C   0  0  0  0  0  0  0  0  0  0  0  0
    9.0948   -6.3880    0.0000 C   0  0  0  0  0  0  0  0  0  0  0  0
   11.3977    1.3325    0.0000 C   0  0  0  0  0  0  0  0  0  0  0  0
    1.9531   -7.2001    0.0000 C   0  0  0  0  0  0  0  0  0  0  0  0
    3.3856   -7.2001    0.0000 C   0  0  0  0  0  0  0  0  0  0  0  0
    3.2606   -1.5158    0.0000 C   0  0  0  0  0  0  0  0  0  0  0  0
    2.5028   -1.1785    0.0000 C   0  0  0  0  0  0  0  0  0  0  0  0
    2.6652   -7.6123    0.0000 C   0  0  0  0  0  0  0  0  0  0  0  0
    2.7151   -0.3790    0.0000 C   0  0  0  0  0  0  0  0  0  0  0  0
  2 18  1  0
  3  2  1  0
  4  1  1  0
  5  3  1  0
  6  2  1  0
  7  6  2  0
  8  1  1  0
  9 35  1  0
 10  7  1  0
 11  9  1  0
 12  8  2  0
 13  5  2  0
 14  9  1  0
 15  4  1  0
 16  1  2  0
 17  1  2  0
 18 30  1  0
 19  8  1  0
 20 12  1  0
 21 11  1  0
 22  3  2  0
 23 12  1  0
 24 11  2  0
 25 10  2  0
 26 14  2  0
 27 15  2  0
 28 20  1  0
 29 20  2  0
 30 36  2  0
 31 19  2  0
 32 31  1  0
 33 21  1  0
 34  6  1  0
 35 45  1  0
 36 29  1  0
 37 28  2  0
 38 33  1  0
 39 15  1  0
 40 32  1  0
 41 38  2  0
 42 38  1  0
 43 34  1  0
 44 40  1  0
 45 51  1  0
 46 39  1  0
 47 43  1  0
 48 44  1  0
 49 41  1  0
 50 42  2  0
 51 52  1  0
 52 54  1  0
 53 50  1  0
 54 46  1  0
 32 23  2  0
 37 30  1  0
 10  5  1  0
 14 13  1  0
 25 26  1  0
 53 49  2  0
M  END
>  <From>  (1) 
www.bindingDB.org

>  <BindingDB Reactant_set_id>  (1) 
50006255

>  <Ligand InChI>  (1) 
InChI=1S/C43H48N4O6S/c1-3-13-31-20-25-39-36(27-31)34-21-18-32(19-22-34)29-47-40(14-4-2)44-38-24-23-35(28-37(38)42(47)49)46(43(50)53-30-33-15-9-8-10-16-33)26-12-7-5-6-11-17-41(48)45-54(39,51)52/h8-10,15-16,18-25,27-28H,3-7,11-14,17,26,29-30H2,1-2H3,(H,45,48)

>  <Ligand InChI Key>  (1) 
JKLBTCRSDDOBRH-UHFFFAOYSA-N

>  <BindingDB MonomerID>  (1) 
50289169

>  <BindingDB Ligand Name>  (1) 
CHEMBL174080::Macrocyclic Quinazolinone analogue

>  <Target Name>  (1) 
Type-1 angiotensin II receptor

>  <Target Source Organism According to Curator or DataSource>  (1) 
Oryctolagus cuniculus

>  <Ki (nM)>  (1) 


>  <IC50 (nM)>  (1) 
 30

>  <Kd (nM)>  (1) 


>  <EC50 (nM)>  (1) 


>  <kon (M-1-s-1)>  (1) 


>  <koff (s-1)>  (1) 


>  <pH>  (1) 


>  <Temp C>  (1) 


>  <Curation/DataSource>  (1) 
ChEMBL

>  <Article DOI>  (1) 
10.1016/0960-894X(96)00116-3

>  <BindingDB Entry DOI>  (1) 
10.7270/Q2MC900D

>  <PMID>  (1) 


>  <PubChem AID>  (1) 


>  <Patent Number>  (1) 


>  <Authors>  (1) 
de Laszlo, SE; Glinka, TW; Greenlee, WJ; Ball, R; Nachbar, RB; Prendergast, K

>  <Institution>  (1) 
TBA

>  <Link to Ligand in BindingDB>  (1) 
http://www.bindingdb.org/bind/chemsearch/marvin/MolStructure.jsp?monomerid=50289169

>  <Link to Ligand-Target Pair in BindingDB>  (1) 
http://www.bindingdb.org/jsp/dbsearch/PrimarySearch_ki.jsp?energyterm=kJ/mole&tag=r21&monomerid=50289169&enzyme=Type-1+angiotensin+II+receptor&column=ki&startPg=0&Increment=50&submit=Search

>  <Ligand HET ID in PDB>  (1) 


>  <PDB ID(s) for Ligand-Target Complex>  (1) 


>  <PubChem CID of Ligand>  (1) 
9896877

>  <PubChem SID of Ligand>  (1) 
104130740

>  <ChEBI ID of Ligand>  (1) 


>  <ChEMBL ID of Ligand>  (1) 
CHEMBL174080

>  <DrugBank ID of Ligand>  (1) 


>  <IUPHAR_GRAC ID of Ligand>  (1) 


>  <KEGG ID of Ligand>  (1) 


>  <ZINC ID of Ligand>  (1) 
ZINC95606333

>  <Number of Protein Chains in Target (bigger than 1 implies a multichain complex)>  (1) 
1

>  <BindingDB Target Chain Sequence>  (1) 
MMLNSSTEDGIKRIQDDCPKAGRHNYIFVMIPTLYSIIFVVGIFGNSLAVIVIYFYMKLKTVASVFLLNLALADLCFLLTLPLWAVYTAMEYRWPFGNYLCKIASASVSFNLYASVFLLTCLSIDRYLAIVHPMKSRLRRTMLVAKVTCIIIWLLAGLASLPAIIHRNVFFIENTNITVCAFHYESQNSTLPIGLGLTKNILGFLFPFLIILTSYTLIWKALKKAYEIQKNKPRNDDIFKIIMAIVLFFFFSWVPHQIFTFLDVLIQLGVIHDCRIADIVDTAMPITICIAYFNNCLNPLFYGFLGKKFKKYFLQLLKYIPPKAKSHSNLSTKMSTLSYRPSDNVSSSSKKPVPCFEVE

>  <PDB ID(s) of Target Chain>  (1) 
6DO1,6OS0,6OS1,6OS2

>  <UniProt (SwissProt) Recommended Name of Target Chain>  (1) 
Type-1 angiotensin II receptor

>  <UniProt (SwissProt) Entry Name of Target Chain>  (1) 
AGTR1_RABIT

>  <UniProt (SwissProt) Primary ID of Target Chain>  (1) 
P34976

>  <UniProt (SwissProt) Secondary ID(s) of Target Chain>  (1) 


>  <UniProt (SwissProt) Alternative ID(s) of Target Chain>  (1) 


>  <UniProt (TrEMBL) Submitted Name of Target Chain>  (1) 


>  <UniProt (TrEMBL) Entry Name of Target Chain>  (1) 


>  <UniProt (TrEMBL) Primary ID of Target Chain>  (1) 


>  <UniProt (TrEMBL) Secondary ID(s) of Target Chain>  (1) 


>  <UniProt (TrEMBL) Alternative ID(s) of Target Chain>  (1) 


$$$$
