
     RDKit          2D

 31 34  0  0  0  0  0  0  0  0999 V2000
    4.0105    0.8364    0.0000 N   0  0  0  0  0  0  0  0  0  0  0  0
    3.5922    2.0969    0.0000 N   0  0  0  0  0  0  0  0  0  0  0  0
    4.6750    1.3234    0.0000 C   0  0  0  0  0  0  0  0  0  0  0  0
    3.3401    1.3177    0.0000 C   0  0  0  0  0  0  0  0  0  0  0  0
    4.4172    2.1083    0.0000 C   0  0  0  0  0  0  0  0  0  0  0  0
    1.1573   -2.4750    0.0000 C   0  0  0  0  0  0  0  0  0  0  0  0
    1.8734   -2.8875    0.0000 C   0  0  0  0  0  0  0  0  0  0  0  0
    5.4714    1.1630    0.0000 N   0  0  0  0  0  0  0  0  0  0  0  0
    4.0105    0.0114    0.0000 C   0  0  0  0  0  0  0  0  0  0  0  0
    1.1573   -1.6500    0.0000 O   0  0  0  0  0  0  0  0  0  0  0  0
    4.9558    2.7156    0.0000 C   0  0  0  0  0  0  0  0  0  0  0  0
    2.5839   -2.4750    0.0000 O   0  0  0  0  0  0  0  0  0  0  0  0
    0.4469   -2.8875    0.0000 C   0  0  0  0  0  0  0  0  0  0  0  0
    1.8792   -1.2375    0.0000 C   0  0  0  0  0  0  0  0  0  0  0  0
    3.3058   -0.4011    0.0000 C   0  0  0  0  0  0  0  0  0  0  0  0
    1.8734   -3.7125    0.0000 O   0  0  0  0  0  0  0  0  0  0  0  0
    2.5609    1.0598    0.0000 C   0  0  0  0  0  0  0  0  0  0  0  0
    6.0214    1.7703    0.0000 C   0  0  0  0  0  0  0  0  0  0  0  0
    2.5839   -1.6500    0.0000 C   0  0  0  0  0  0  0  0  0  0  0  0
    1.8792   -0.4125    0.0000 C   0  0  0  0  0  0  0  0  0  0  0  0
    3.3058   -1.2375    0.0000 C   0  0  0  0  0  0  0  0  0  0  0  0
    2.5839    0.0114    0.0000 C   0  0  0  0  0  0  0  0  0  0  0  0
    5.7636    2.5552    0.0000 C   0  0  0  0  0  0  0  0  0  0  0  0
    4.6980    3.5005    0.0000 C   0  0  0  0  0  0  0  0  0  0  0  0
   -0.2692   -2.4636    0.0000 C   0  0  0  0  0  0  0  0  0  0  0  0
    0.4469   -3.7011    0.0000 C   0  0  0  0  0  0  0  0  0  0  0  0
    1.9422    1.5984    0.0000 C   0  0  0  0  0  0  0  0  0  0  0  0
    1.1573    1.3406    0.0000 C   0  0  0  0  0  0  0  0  0  0  0  0
   -0.2692   -4.1136    0.0000 C   0  0  0  0  0  0  0  0  0  0  0  0
   -0.9797   -2.8761    0.0000 C   0  0  0  0  0  0  0  0  0  0  0  0
   -0.9797   -3.7011    0.0000 C   0  0  0  0  0  0  0  0  0  0  0  0
  2  4  2  0
  3  1  1  0
  4  1  1  0
  5  3  2  0
  6 10  1  0
  7  6  1  0
  8  3  1  0
  9  1  1  0
 10 14  1  0
 11  5  1  0
 12  7  2  0
 13  6  1  0
 14 20  2  0
 15  9  1  0
 16  7  1  0
 17  4  1  0
 18  8  2  0
 19 21  2  0
 20 22  1  0
 21 15  1  0
 22 15  2  0
 23 18  1  0
 24 11  1  0
 25 13  2  0
 26 13  1  0
 27 17  1  0
 28 27  1  0
 29 26  2  0
 30 25  1  0
 31 29  1  0
  5  2  1  0
 14 19  1  0
 23 11  2  0
 30 31  2  0
M  END
>  <From>  (1) 
www.bindingDB.org

>  <BindingDB Reactant_set_id>  (1) 
50003605

>  <Ligand InChI>  (1) 
InChI=1S/C25H25N3O3/c1-3-7-21-27-22-17(2)14-15-26-24(22)28(21)16-18-10-12-20(13-11-18)31-23(25(29)30)19-8-5-4-6-9-19/h4-6,8-15,23H,3,7,16H2,1-2H3,(H,29,30)

>  <Ligand InChI Key>  (1) 
DJSIDVKDEPSWHS-UHFFFAOYSA-N

>  <BindingDB MonomerID>  (1) 
50284459

>  <BindingDB Ligand Name>  (1) 
CHEMBL274260::[4-(7-Methyl-2-propyl-imidazo[4,5-b]pyridin-3-ylmethyl)-phenoxy]-phenyl-acetic acid

>  <Target Name>  (1) 
Type-1 angiotensin II receptor

>  <Target Source Organism According to Curator or DataSource>  (1) 
Oryctolagus cuniculus

>  <Ki (nM)>  (1) 


>  <IC50 (nM)>  (1) 
 65

>  <Kd (nM)>  (1) 


>  <EC50 (nM)>  (1) 


>  <kon (M-1-s-1)>  (1) 


>  <koff (s-1)>  (1) 


>  <pH>  (1) 


>  <Temp C>  (1) 


>  <Curation/DataSource>  (1) 
ChEMBL

>  <Article DOI>  (1) 
10.1016/0960-894X(95)00185-V

>  <BindingDB Entry DOI>  (1) 
10.7270/Q2J67GV9

>  <PMID>  (1) 


>  <PubChem AID>  (1) 


>  <Patent Number>  (1) 


>  <Authors>  (1) 
Walsh, TF; Fitch, KJ; Chang, RS; Faust, KA; Chen, TB; Kivlighn, SD; Zingaro, GJ; Lotti, VJ; Siegl, PK; Patchett, AA; Greenlee, WJ

>  <Institution>  (1) 
TBA

>  <Link to Ligand in BindingDB>  (1) 
http://www.bindingdb.org/bind/chemsearch/marvin/MolStructure.jsp?monomerid=50284459

>  <Link to Ligand-Target Pair in BindingDB>  (1) 
http://www.bindingdb.org/jsp/dbsearch/PrimarySearch_ki.jsp?energyterm=kJ/mole&tag=r21&monomerid=50284459&enzyme=Type-1+angiotensin+II+receptor&column=ki&startPg=0&Increment=50&submit=Search

>  <Ligand HET ID in PDB>  (1) 


>  <PDB ID(s) for Ligand-Target Complex>  (1) 


>  <PubChem CID of Ligand>  (1) 
15287883

>  <PubChem SID of Ligand>  (1) 
104126116

>  <ChEBI ID of Ligand>  (1) 


>  <ChEMBL ID of Ligand>  (1) 
CHEMBL274260

>  <DrugBank ID of Ligand>  (1) 


>  <IUPHAR_GRAC ID of Ligand>  (1) 


>  <KEGG ID of Ligand>  (1) 


>  <ZINC ID of Ligand>  (1) 
ZINC34516931

>  <Number of Protein Chains in Target (bigger than 1 implies a multichain complex)>  (1) 
1

>  <BindingDB Target Chain Sequence>  (1) 
MMLNSSTEDGIKRIQDDCPKAGRHNYIFVMIPTLYSIIFVVGIFGNSLAVIVIYFYMKLKTVASVFLLNLALADLCFLLTLPLWAVYTAMEYRWPFGNYLCKIASASVSFNLYASVFLLTCLSIDRYLAIVHPMKSRLRRTMLVAKVTCIIIWLLAGLASLPAIIHRNVFFIENTNITVCAFHYESQNSTLPIGLGLTKNILGFLFPFLIILTSYTLIWKALKKAYEIQKNKPRNDDIFKIIMAIVLFFFFSWVPHQIFTFLDVLIQLGVIHDCRIADIVDTAMPITICIAYFNNCLNPLFYGFLGKKFKKYFLQLLKYIPPKAKSHSNLSTKMSTLSYRPSDNVSSSSKKPVPCFEVE

>  <PDB ID(s) of Target Chain>  (1) 
6DO1,6OS0,6OS1,6OS2

>  <UniProt (SwissProt) Recommended Name of Target Chain>  (1) 
Type-1 angiotensin II receptor

>  <UniProt (SwissProt) Entry Name of Target Chain>  (1) 
AGTR1_RABIT

>  <UniProt (SwissProt) Primary ID of Target Chain>  (1) 
P34976

>  <UniProt (SwissProt) Secondary ID(s) of Target Chain>  (1) 


>  <UniProt (SwissProt) Alternative ID(s) of Target Chain>  (1) 


>  <UniProt (TrEMBL) Submitted Name of Target Chain>  (1) 


>  <UniProt (TrEMBL) Entry Name of Target Chain>  (1) 


>  <UniProt (TrEMBL) Primary ID of Target Chain>  (1) 


>  <UniProt (TrEMBL) Secondary ID(s) of Target Chain>  (1) 


>  <UniProt (TrEMBL) Alternative ID(s) of Target Chain>  (1) 


$$$$
