
     RDKit          2D

 52 58  0  0  0  0  0  0  0  0999 V2000
   11.2901   -4.2338    0.0000 C   0  0  0  0  0  0  0  0  0  0  0  0
    7.0062   -4.2254    0.0000 N   0  0  0  0  0  0  0  0  0  0  0  0
    6.2880   -3.8079    0.0000 C   0  0  0  0  0  0  0  0  0  0  0  0
    5.5740   -4.2254    0.0000 C   0  0  0  0  0  0  0  0  0  0  0  0
   11.7159   -2.9728    0.0000 N   0  0  0  0  0  0  0  0  0  0  0  0
   10.6262   -3.7452    0.0000 N   0  0  0  0  0  0  0  0  0  0  0  0
   11.9664   -3.7495    0.0000 N   0  0  0  0  0  0  0  0  0  0  0  0
   10.8975   -2.9603    0.0000 N   0  0  0  0  0  0  0  0  0  0  0  0
    3.4238   -2.9854    0.0000 C   0  0  0  0  0  0  0  0  0  0  0  0
    6.2880   -5.4655    0.0000 N   0  0  0  0  0  0  0  0  0  0  0  0
   11.2901   -5.0605    0.0000 C   0  0  0  0  0  0  0  0  0  0  0  0
    7.0062   -5.0521    0.0000 C   0  0  0  0  0  0  0  0  0  0  0  0
    3.4238   -3.8121    0.0000 N   0  0  0  0  0  0  0  0  0  0  0  0
    4.8517   -3.8121    0.0000 C   0  0  0  0  0  0  0  0  0  0  0  0
    4.1378   -4.2254    0.0000 C   0  0  0  0  0  0  0  0  0  0  0  0
    5.5657   -5.0521    0.0000 C   0  0  0  0  0  0  0  0  0  0  0  0
   10.5761   -5.4738    0.0000 C   0  0  0  0  0  0  0  0  0  0  0  0
    7.7202   -3.8121    0.0000 C   0  0  0  0  0  0  0  0  0  0  0  0
    4.1378   -2.5720    0.0000 C   0  0  0  0  0  0  0  0  0  0  0  0
    9.8621   -5.0605    0.0000 C   0  0  0  0  0  0  0  0  0  0  0  0
    6.2880   -2.9812    0.0000 O   0  0  0  0  0  0  0  0  0  0  0  0
    2.7056   -2.5720    0.0000 O   0  0  0  0  0  0  0  0  0  0  0  0
    4.1378   -5.0521    0.0000 C   0  0  0  0  0  0  0  0  0  0  0  0
    4.8517   -5.4655    0.0000 C   0  0  0  0  0  0  0  0  0  0  0  0
    4.8517   -2.9854    0.0000 C   0  0  0  0  0  0  0  0  0  0  0  0
    4.1378   -1.7453    0.0000 C   0  0  0  0  0  0  0  0  0  0  0  0
    9.8621   -4.2254    0.0000 C   0  0  0  0  0  0  0  0  0  0  0  0
    9.1481   -5.4655    0.0000 C   0  0  0  0  0  0  0  0  0  0  0  0
    6.2880   -1.3320    0.0000 O   0  0  0  0  0  0  0  0  0  0  0  0
    8.4341   -4.2254    0.0000 C   0  0  0  0  0  0  0  0  0  0  0  0
    5.5657   -1.7453    0.0000 C   0  0  0  0  0  0  0  0  0  0  0  0
    9.8370   -3.9958    0.0000 C   0  0  0  0  0  0  0  0  0  0  0  0
    8.4341   -5.0521    0.0000 C   0  0  0  0  0  0  0  0  0  0  0  0
    9.1481   -3.8121    0.0000 C   0  0  0  0  0  0  0  0  0  0  0  0
    6.2880   -0.5052    0.0000 C   0  0  0  0  0  0  0  0  0  0  0  0
    4.8517   -1.3320    0.0000 C   0  0  0  0  0  0  0  0  0  0  0  0
    5.5657   -2.5720    0.0000 C   0  0  0  0  0  0  0  0  0  0  0  0
    2.7056   -4.2212    0.0000 C   0  0  0  0  0  0  0  0  0  0  0  0
   12.0040   -5.4655    0.0000 C   0  0  0  0  0  0  0  0  0  0  0  0
    7.0020   -0.0919    0.0000 C   0  0  0  0  0  0  0  0  0  0  0  0
   10.5761   -6.3005    0.0000 C   0  0  0  0  0  0  0  0  0  0  0  0
    7.7202   -0.5052    0.0000 C   0  0  0  0  0  0  0  0  0  0  0  0
    7.0020    0.7348    0.0000 C   0  0  0  0  0  0  0  0  0  0  0  0
    1.9916   -3.8079    0.0000 C   0  0  0  0  0  0  0  0  0  0  0  0
    0.5553   -3.8079    0.0000 C   0  0  0  0  0  0  0  0  0  0  0  0
    1.2693   -4.2212    0.0000 C   0  0  0  0  0  0  0  0  0  0  0  0
   12.0123   -6.3005    0.0000 C   0  0  0  0  0  0  0  0  0  0  0  0
   11.2901   -6.7139    0.0000 C   0  0  0  0  0  0  0  0  0  0  0  0
   -0.1586   -4.2129    0.0000 C   0  0  0  0  0  0  0  0  0  0  0  0
    7.7076    1.1482    0.0000 C   0  0  0  0  0  0  0  0  0  0  0  0
    8.4341   -0.0919    0.0000 C   0  0  0  0  0  0  0  0  0  0  0  0
    8.4341    0.7348    0.0000 C   0  0  0  0  0  0  0  0  0  0  0  0
  2 18  1  0
  3  2  1  0
  4  3  1  0
  5  7  1  0
  6  1  1  0
  7  1  2  0
  8  6  1  0
  9 13  1  0
 10 12  2  0
 11  1  1  0
 12  2  1  0
 13 15  1  0
 14  4  2  0
 15 14  1  0
 16 10  1  0
 17 11  1  0
 18 30  1  0
 19  9  1  0
 20 17  1  0
 21  3  2  0
 22  9  2  0
 23 24  1  0
 24 16  2  0
 25 19  2  0
 26 19  1  0
 27 20  2  0
 28 20  1  0
 29 31  1  0
 30 33  1  0
 31 36  1  0
 32  6  1  0
 33 28  2  0
 34 27  1  0
 35 29  1  0
 36 26  2  0
 37 25  1  0
 38 13  1  0
 39 11  2  0
 40 35  1  0
 41 17  2  0
 42 40  2  0
 43 40  1  0
 44 38  1  0
 45 46  1  0
 46 44  1  0
 47 39  1  0
 48 47  2  0
 49 45  1  0
 50 43  2  0
 51 42  1  0
 52 50  1  0
  5  8  2  0
 41 48  1  0
 34 30  2  0
  4 16  1  0
 15 23  2  0
 37 31  2  0
 51 52  2  0
M  END
>  <From>  (1) 
www.bindingDB.org

>  <BindingDB Reactant_set_id>  (1) 
50003743

>  <Ligand InChI>  (1) 
InChI=1S/C42H39N7O3/c1-3-4-10-25-49(41(50)33-19-22-35(23-20-33)52-28-31-11-6-5-7-12-31)34-21-24-39-38(26-34)42(51)48(29-43-39)27-30-15-17-32(18-16-30)36-13-8-9-14-37(36)40-44-45-46-47(40)2/h5-9,11-24,26,29H,3-4,10,25,27-28H2,1-2H3

>  <Ligand InChI Key>  (1) 
AUPCNUUWFJWRKW-UHFFFAOYSA-N

>  <BindingDB MonomerID>  (1) 
50284668

>  <BindingDB Ligand Name>  (1) 
4-Benzyloxy-N-{3-[2'-(1-methyl-1H-tetrazol-5-yl)-biphenyl-4-ylmethyl]-4-oxo-3,4-dihydro-quinazolin-6-yl}-N-pentyl-benzamide::CHEMBL263038

>  <Target Name>  (1) 
Type-1 angiotensin II receptor

>  <Target Source Organism According to Curator or DataSource>  (1) 
Oryctolagus cuniculus

>  <Ki (nM)>  (1) 


>  <IC50 (nM)>  (1) 
 8.4

>  <Kd (nM)>  (1) 


>  <EC50 (nM)>  (1) 


>  <kon (M-1-s-1)>  (1) 


>  <koff (s-1)>  (1) 


>  <pH>  (1) 


>  <Temp C>  (1) 


>  <Curation/DataSource>  (1) 
ChEMBL

>  <Article DOI>  (1) 
10.1016/0960-894X(95)00224-H

>  <BindingDB Entry DOI>  (1) 
10.7270/Q2086589

>  <PMID>  (1) 


>  <PubChem AID>  (1) 


>  <Patent Number>  (1) 


>  <Authors>  (1) 
de Laszlo, SE; Chang, RS; Chen, TB; Faust, KA; Greenlee, WJ; Kivlighn, SD; Lotti, VJ; O'Malley, SS; Schorn, TW; Schorn, TW; Siegl, PK; Tran, J; Zingaro, GJ

>  <Institution>  (1) 
TBA

>  <Link to Ligand in BindingDB>  (1) 
http://www.bindingdb.org/bind/chemsearch/marvin/MolStructure.jsp?monomerid=50284668

>  <Link to Ligand-Target Pair in BindingDB>  (1) 
http://www.bindingdb.org/jsp/dbsearch/PrimarySearch_ki.jsp?energyterm=kJ/mole&tag=r21&monomerid=50284668&enzyme=Type-1+angiotensin+II+receptor&column=ki&startPg=0&Increment=50&submit=Search

>  <Ligand HET ID in PDB>  (1) 


>  <PDB ID(s) for Ligand-Target Complex>  (1) 


>  <PubChem CID of Ligand>  (1) 
44277872

>  <PubChem SID of Ligand>  (1) 
104126239

>  <ChEBI ID of Ligand>  (1) 


>  <ChEMBL ID of Ligand>  (1) 
CHEMBL263038

>  <DrugBank ID of Ligand>  (1) 


>  <IUPHAR_GRAC ID of Ligand>  (1) 


>  <KEGG ID of Ligand>  (1) 


>  <ZINC ID of Ligand>  (1) 
ZINC28770266

>  <Number of Protein Chains in Target (bigger than 1 implies a multichain complex)>  (1) 
1

>  <BindingDB Target Chain Sequence>  (1) 
MMLNSSTEDGIKRIQDDCPKAGRHNYIFVMIPTLYSIIFVVGIFGNSLAVIVIYFYMKLKTVASVFLLNLALADLCFLLTLPLWAVYTAMEYRWPFGNYLCKIASASVSFNLYASVFLLTCLSIDRYLAIVHPMKSRLRRTMLVAKVTCIIIWLLAGLASLPAIIHRNVFFIENTNITVCAFHYESQNSTLPIGLGLTKNILGFLFPFLIILTSYTLIWKALKKAYEIQKNKPRNDDIFKIIMAIVLFFFFSWVPHQIFTFLDVLIQLGVIHDCRIADIVDTAMPITICIAYFNNCLNPLFYGFLGKKFKKYFLQLLKYIPPKAKSHSNLSTKMSTLSYRPSDNVSSSSKKPVPCFEVE

>  <PDB ID(s) of Target Chain>  (1) 
6DO1,6OS0,6OS1,6OS2

>  <UniProt (SwissProt) Recommended Name of Target Chain>  (1) 
Type-1 angiotensin II receptor

>  <UniProt (SwissProt) Entry Name of Target Chain>  (1) 
AGTR1_RABIT

>  <UniProt (SwissProt) Primary ID of Target Chain>  (1) 
P34976

>  <UniProt (SwissProt) Secondary ID(s) of Target Chain>  (1) 


>  <UniProt (SwissProt) Alternative ID(s) of Target Chain>  (1) 


>  <UniProt (TrEMBL) Submitted Name of Target Chain>  (1) 


>  <UniProt (TrEMBL) Entry Name of Target Chain>  (1) 


>  <UniProt (TrEMBL) Primary ID of Target Chain>  (1) 


>  <UniProt (TrEMBL) Secondary ID(s) of Target Chain>  (1) 


>  <UniProt (TrEMBL) Alternative ID(s) of Target Chain>  (1) 


$$$$
