
     RDKit          2D

 34 37  0  0  0  0  0  0  0  0999 V2000
    3.9500   -2.3917    0.0000 N   0  0  0  0  0  0  0  0  0  0  0  0
    4.7292   -2.1417    0.0000 C   0  0  0  0  0  0  0  0  0  0  0  0
    3.9500   -1.0667    0.0000 N   0  0  0  0  0  0  0  0  0  0  0  0
    3.4625   -1.7292    0.0000 C   0  0  0  0  0  0  0  0  0  0  0  0
    4.7292   -1.3167    0.0000 C   0  0  0  0  0  0  0  0  0  0  0  0
    5.4417   -2.5542    0.0000 N   0  0  0  0  0  0  0  0  0  0  0  0
    6.3875   -5.0292    0.0000 N   0  0  0  0  0  0  0  0  0  0  0  0
    7.0917   -4.6167    0.0000 C   0  0  0  0  0  0  0  0  0  0  0  0
    5.4417   -0.9042    0.0000 C   0  0  0  0  0  0  0  0  0  0  0  0
    7.1125   -3.7917    0.0000 C   0  0  0  0  0  0  0  0  0  0  0  0
    3.6875   -3.1792    0.0000 C   0  0  0  0  0  0  0  0  0  0  0  0
    5.6750   -4.6167    0.0000 C   0  0  0  0  0  0  0  0  0  0  0  0
    6.1625   -2.1417    0.0000 C   0  0  0  0  0  0  0  0  0  0  0  0
    6.1625   -1.3167    0.0000 C   0  0  0  0  0  0  0  0  0  0  0  0
    6.4042   -3.3625    0.0000 O   0  0  0  0  0  0  0  0  0  0  0  0
    7.8125   -5.0292    0.0000 C   0  0  0  0  0  0  0  0  0  0  0  0
    4.9542   -5.0292    0.0000 C   0  0  0  0  0  0  0  0  0  0  0  0
    5.6667   -3.7917    0.0000 C   0  0  0  0  0  0  0  0  0  0  0  0
    5.6750   -6.2667    0.0000 C   0  0  0  0  0  0  0  0  0  0  0  0
    5.6750   -7.0917    0.0000 C   0  0  0  0  0  0  0  0  0  0  0  0
    4.2375   -3.7917    0.0000 C   0  0  0  0  0  0  0  0  0  0  0  0
    7.8292   -3.3917    0.0000 O   0  0  0  0  0  0  0  0  0  0  0  0
    6.3875   -5.8542    0.0000 C   0  0  0  0  0  0  0  0  0  0  0  0
    2.6375   -1.7292    0.0000 C   0  0  0  0  0  0  0  0  0  0  0  0
    4.2375   -4.6167    0.0000 C   0  0  0  0  0  0  0  0  0  0  0  0
    4.9500   -3.3792    0.0000 C   0  0  0  0  0  0  0  0  0  0  0  0
    5.4375   -0.0792    0.0000 C   0  0  0  0  0  0  0  0  0  0  0  0
    6.8750   -2.5542    0.0000 C   0  0  0  0  0  0  0  0  0  0  0  0
    8.5292   -4.6167    0.0000 C   0  0  0  0  0  0  0  0  0  0  0  0
    7.8125   -5.8542    0.0000 C   0  0  0  0  0  0  0  0  0  0  0  0
    2.2250   -1.0167    0.0000 C   0  0  0  0  0  0  0  0  0  0  0  0
    8.5292   -6.2667    0.0000 C   0  0  0  0  0  0  0  0  0  0  0  0
    9.2375   -5.0167    0.0000 C   0  0  0  0  0  0  0  0  0  0  0  0
    9.2417   -5.8542    0.0000 C   0  0  0  0  0  0  0  0  0  0  0  0
  2  1  1  0
  3  4  2  0
  4  1  1  0
  5  2  2  0
  6  2  1  0
  7 12  1  0
  8  7  1  0
  9  5  1  0
 10  8  1  0
 11  1  1  0
 12 18  2  0
 13  6  2  0
 14 13  1  0
 15 10  2  0
 16  8  1  0
 17 25  2  0
 18 26  1  0
 19 23  1  0
 20 19  2  0
 21 11  1  0
 22 10  1  0
 23  7  1  0
 24  4  1  0
 25 21  1  0
 26 21  2  0
 27  9  1  0
 28 13  1  0
 29 16  2  0
 30 16  1  0
 31 24  1  0
 32 30  2  0
 33 29  1  0
 34 32  1  0
  5  3  1  0
 17 12  1  0
  9 14  2  0
 34 33  2  0
M  END
>  <From>  (1) 
www.bindingDB.org

>  <BindingDB Reactant_set_id>  (1) 
50045320

>  <Ligand InChI>  (1) 
InChI=1S/C28H30N4O2/c1-5-16-31(26(28(33)34)22-10-8-7-9-11-22)23-14-12-21(13-15-23)18-32-24(6-2)30-25-19(3)17-20(4)29-27(25)32/h5,7-15,17,26H,1,6,16,18H2,2-4H3,(H,33,34)

>  <Ligand InChI Key>  (1) 
ORMOZCXJOWQKKH-UHFFFAOYSA-N

>  <BindingDB MonomerID>  (1) 
50043469

>  <BindingDB Ligand Name>  (1) 
CHEMBL135089::{Allyl-[4-(2-ethyl-5,7-dimethyl-imidazo[4,5-b]pyridin-3-ylmethyl)-phenyl]-amino}-phenyl-acetic acid

>  <Target Name>  (1) 
Type-1 angiotensin II receptor

>  <Target Source Organism According to Curator or DataSource>  (1) 
Oryctolagus cuniculus

>  <Ki (nM)>  (1) 


>  <IC50 (nM)>  (1) 
 5.3

>  <Kd (nM)>  (1) 


>  <EC50 (nM)>  (1) 


>  <kon (M-1-s-1)>  (1) 


>  <koff (s-1)>  (1) 


>  <pH>  (1) 


>  <Temp C>  (1) 


>  <Curation/DataSource>  (1) 
ChEMBL

>  <Article DOI>  (1) 
10.1021/jm9504722

>  <BindingDB Entry DOI>  (1) 
10.7270/Q29P3299

>  <PMID>  (1) 
8576904

>  <PubChem AID>  (1) 


>  <Patent Number>  (1) 


>  <Authors>  (1) 
Wexler, RR; Greenlee, WJ; Irvin, JD; Goldberg, MR; Prendergast, K; Smith, RD; Timmermans, PB

>  <Institution>  (1) 
DuPont Pharmaceuticals Company

>  <Link to Ligand in BindingDB>  (1) 
http://www.bindingdb.org/bind/chemsearch/marvin/MolStructure.jsp?monomerid=50043469

>  <Link to Ligand-Target Pair in BindingDB>  (1) 
http://www.bindingdb.org/jsp/dbsearch/PrimarySearch_ki.jsp?energyterm=kJ/mole&tag=r21&monomerid=50043469&enzyme=Type-1+angiotensin+II+receptor&column=ki&startPg=0&Increment=50&submit=Search

>  <Ligand HET ID in PDB>  (1) 


>  <PDB ID(s) for Ligand-Target Complex>  (1) 


>  <PubChem CID of Ligand>  (1) 
10004112

>  <PubChem SID of Ligand>  (1) 
103974897

>  <ChEBI ID of Ligand>  (1) 


>  <ChEMBL ID of Ligand>  (1) 
CHEMBL135089

>  <DrugBank ID of Ligand>  (1) 


>  <IUPHAR_GRAC ID of Ligand>  (1) 


>  <KEGG ID of Ligand>  (1) 


>  <ZINC ID of Ligand>  (1) 
ZINC11687177

>  <Number of Protein Chains in Target (bigger than 1 implies a multichain complex)>  (1) 
1

>  <BindingDB Target Chain Sequence>  (1) 
MMLNSSTEDGIKRIQDDCPKAGRHNYIFVMIPTLYSIIFVVGIFGNSLAVIVIYFYMKLKTVASVFLLNLALADLCFLLTLPLWAVYTAMEYRWPFGNYLCKIASASVSFNLYASVFLLTCLSIDRYLAIVHPMKSRLRRTMLVAKVTCIIIWLLAGLASLPAIIHRNVFFIENTNITVCAFHYESQNSTLPIGLGLTKNILGFLFPFLIILTSYTLIWKALKKAYEIQKNKPRNDDIFKIIMAIVLFFFFSWVPHQIFTFLDVLIQLGVIHDCRIADIVDTAMPITICIAYFNNCLNPLFYGFLGKKFKKYFLQLLKYIPPKAKSHSNLSTKMSTLSYRPSDNVSSSSKKPVPCFEVE

>  <PDB ID(s) of Target Chain>  (1) 
6DO1,6OS0,6OS1,6OS2

>  <UniProt (SwissProt) Recommended Name of Target Chain>  (1) 
Type-1 angiotensin II receptor

>  <UniProt (SwissProt) Entry Name of Target Chain>  (1) 
AGTR1_RABIT

>  <UniProt (SwissProt) Primary ID of Target Chain>  (1) 
P34976

>  <UniProt (SwissProt) Secondary ID(s) of Target Chain>  (1) 


>  <UniProt (SwissProt) Alternative ID(s) of Target Chain>  (1) 


>  <UniProt (TrEMBL) Submitted Name of Target Chain>  (1) 


>  <UniProt (TrEMBL) Entry Name of Target Chain>  (1) 


>  <UniProt (TrEMBL) Primary ID of Target Chain>  (1) 


>  <UniProt (TrEMBL) Secondary ID(s) of Target Chain>  (1) 


>  <UniProt (TrEMBL) Alternative ID(s) of Target Chain>  (1) 


$$$$
