 
     RDKit          2D

 30 33  0  0  0  0  0  0  0  0999 V2000
    9.0194  -17.6166    0.0000 C   0  0  0  0  0  0  0  0  0  0  0  0
    9.0182  -18.4440    0.0000 C   0  0  0  0  0  0  0  0  0  0  0  0
    9.7331  -18.8569    0.0000 C   0  0  0  0  0  0  0  0  0  0  0  0
    9.7313  -17.2039    0.0000 C   0  0  0  0  0  0  0  0  0  0  0  0
   10.4466  -17.6130    0.0000 C   0  0  0  0  0  0  0  0  0  0  0  0
   10.4469  -18.4440    0.0000 C   0  0  0  0  0  0  0  0  0  0  0  0
   11.2374  -18.7006    0.0000 N   0  0  0  0  0  0  0  0  0  0  0  0
   11.7257  -18.0281    0.0000 C   0  0  0  0  0  0  0  0  0  0  0  0
   11.2369  -17.3560    0.0000 N   0  0  0  0  0  0  0  0  0  0  0  0
   12.5507  -18.0278    0.0000 C   0  0  0  0  0  0  0  0  0  0  0  0
   12.9629  -17.3132    0.0000 C   0  0  0  0  0  0  0  0  0  0  0  0
   13.7879  -17.3129    0.0000 C   0  0  0  0  0  0  0  0  0  0  0  0
   14.2002  -16.5983    0.0000 C   0  0  0  0  0  0  0  0  0  0  0  0
   11.6417  -19.4125    0.0000 C   0  0  0  0  0  0  0  0  0  0  0  0
   12.4666  -19.4183    0.0000 C   0  0  0  0  0  0  0  0  0  0  0  0
   12.8714  -20.1366    0.0000 C   0  0  0  0  0  0  0  0  0  0  0  0
   13.6956  -20.1427    0.0000 C   0  0  0  0  0  0  0  0  0  0  0  0
   14.1140  -19.4307    0.0000 C   0  0  0  0  0  0  0  0  0  0  0  0
   13.7021  -18.7109    0.0000 C   0  0  0  0  0  0  0  0  0  0  0  0
   12.8793  -18.7082    0.0000 C   0  0  0  0  0  0  0  0  0  0  0  0
   14.9354  -19.4350    0.0000 C   0  0  0  0  0  0  0  0  0  0  0  0
   15.3432  -20.1535    0.0000 C   0  0  0  0  0  0  0  0  0  0  0  0
   16.1674  -20.1585    0.0000 C   0  0  0  0  0  0  0  0  0  0  0  0
   16.5848  -19.4459    0.0000 C   0  0  0  0  0  0  0  0  0  0  0  0
   16.1720  -18.7267    0.0000 C   0  0  0  0  0  0  0  0  0  0  0  0
   15.3491  -18.7251    0.0000 C   0  0  0  0  0  0  0  0  0  0  0  0
   14.9257  -20.8690    0.0000 C   0  0  0  0  0  0  0  0  0  0  0  0
   14.1007  -20.8634    0.0000 O   0  0  0  0  0  0  0  0  0  0  0  0
   15.3333  -21.5862    0.0000 O   0  0  0  0  0  0  0  0  0  0  0  0
    8.3048  -17.2043    0.0000 N   0  0  0  0  0  0  0  0  0  0  0  0
  1  2  2  0
 14 15  1  0
  5  4  2  0
 15 16  2  0
  6  7  1  0
 16 17  1  0
  7  8  1  0
 17 18  2  0
  8  9  2  0
 18 19  1  0
  9  5  1  0
 19 20  2  0
 20 15  1  0
  4  1  1  0
  8 10  1  0
 21 22  2  0
  5  6  1  0
 22 23  1  0
 10 11  1  0
 23 24  2  0
 24 25  1  0
 11 12  1  0
 25 26  2  0
 26 21  1  0
 18 21  1  0
  2  3  1  0
 12 13  1  0
  3  6  2  0
 27 28  1  0
 27 29  2  0
 22 27  1  0
  7 14  1  0
  1 30  1  0
M  END
>  <From>  (1) 
www.bindingDB.org

>  <BindingDB Reactant_set_id>  (1) 
50069224

>  <Ligand InChI>  (1) 
InChI=1S/C25H25N3O2/c1-2-3-8-24-27-22-15-19(26)13-14-23(22)28(24)16-17-9-11-18(12-10-17)20-6-4-5-7-21(20)25(29)30/h4-7,9-15H,2-3,8,16,26H2,1H3,(H,29,30)

>  <Ligand InChI Key>  (1) 
KFMWZMWVFMSNTN-UHFFFAOYSA-N

>  <BindingDB MonomerID>  (1) 
50043258

>  <BindingDB Ligand Name>  (1) 
4'-(5-Amino-2-butyl-benzoimidazol-1-ylmethyl)-biphenyl-2-carboxylic acid::CHEMBL128318

>  <Target Name>  (1) 
Type-1 angiotensin II receptor B

>  <Target Source Organism According to Curator or DataSource>  (1) 
Rattus

>  <Ki (nM)>  (1) 


>  <IC50 (nM)>  (1) 
 820

>  <Kd (nM)>  (1) 


>  <EC50 (nM)>  (1) 


>  <kon (M-1-s-1)>  (1) 


>  <koff (s-1)>  (1) 


>  <pH>  (1) 


>  <Temp C>  (1) 


>  <Curation/DataSource>  (1) 
ChEMBL

>  <Article DOI>  (1) 
10.1021/jm00077a007

>  <BindingDB Entry DOI>  (1) 
10.7270/Q2V98746

>  <PMID>  (1) 
8258826

>  <PubChem AID>  (1) 


>  <Patent Number>  (1) 


>  <Authors>  (1) 
Ries, UJ; Mihm, G; Narr, B; Hasselbach, KM; Wittneben, H; Entzeroth, M; van Meel, JC; Wienen, W; Hauel, NH

>  <Institution>  (1) 
Dr. Karl Thomae GmbH

>  <Link to Ligand in BindingDB>  (1) 
http://www.bindingdb.org/bind/chemsearch/marvin/MolStructure.jsp?monomerid=50043258

>  <Link to Ligand-Target Pair in BindingDB>  (1) 
http://www.bindingdb.org/jsp/dbsearch/PrimarySearch_ki.jsp?energyterm=kJ/mole&tag=r21&monomerid=50043258&enzyme=Type-1+angiotensin+II+receptor+B&column=ki&startPg=0&Increment=50&submit=Search

>  <Ligand HET ID in PDB>  (1) 


>  <PDB ID(s) for Ligand-Target Complex>  (1) 


>  <PubChem CID of Ligand>  (1) 
10250336

>  <PubChem SID of Ligand>  (1) 
103974727

>  <ChEBI ID of Ligand>  (1) 


>  <ChEMBL ID of Ligand>  (1) 
CHEMBL128318

>  <DrugBank ID of Ligand>  (1) 


>  <IUPHAR_GRAC ID of Ligand>  (1) 


>  <KEGG ID of Ligand>  (1) 


>  <ZINC ID of Ligand>  (1) 
ZINC13732014

>  <Number of Protein Chains in Target (bigger than 1 implies a multichain complex)>  (1) 
1

>  <BindingDB Target Chain Sequence>  (1) 
MTLNSSTEDGIKRIQDDCPKAGRHNYIFVMIPTLYSIIFVVGIFGNSLVVIVIYFYMKLKTVASVFLLNLALADLCFLLTLPLWAVYTAMEYRWPFGNHLCKIASASVSFNLYASVFLLTCLSIDRYLAIVHPMKSRLRRTMLVAKVTCIIIWLMAGLASLPAVIYRNVYFIENTNITVCAFHYESQNSTLPIGLGLTKNILGFVFPFLIILTSYTLIWKALKKAYKIQKNTPRNDDIFRIIMAIVLFFFFSWVPHQIFTFLDVLIQLGIIRDCEIADIVDTAMPITICIAYFNNCLNPLFYGFLGKKFKKYFLQLLKYIPPTAKSHAGLSTKMSTLSYRPSDNMSSSAKKSASFFEVE

>  <PDB ID(s) of Target Chain>  (1) 


>  <UniProt (SwissProt) Recommended Name of Target Chain>  (1) 
Type-1 angiotensin II receptor B

>  <UniProt (SwissProt) Entry Name of Target Chain>  (1) 
AGTRB_RAT

>  <UniProt (SwissProt) Primary ID of Target Chain>  (1) 
P29089

>  <UniProt (SwissProt) Secondary ID(s) of Target Chain>  (1) 


>  <UniProt (SwissProt) Alternative ID(s) of Target Chain>  (1) 


>  <UniProt (TrEMBL) Submitted Name of Target Chain>  (1) 


>  <UniProt (TrEMBL) Entry Name of Target Chain>  (1) 


>  <UniProt (TrEMBL) Primary ID of Target Chain>  (1) 


>  <UniProt (TrEMBL) Secondary ID(s) of Target Chain>  (1) 


>  <UniProt (TrEMBL) Alternative ID(s) of Target Chain>  (1) 


$$$$
