
     RDKit          2D

 31 35  0  0  0  0  0  0  0  0999 V2000
    0.2464    2.5380    0.0000 N   0  0  0  0  0  0  0  0  0  0  0  0
    1.0370    2.7958    0.0000 C   0  0  0  0  0  0  0  0  0  0  0  0
    0.2464    3.8786    0.0000 N   0  0  0  0  0  0  0  0  0  0  0  0
   -0.2348    3.2083    0.0000 C   0  0  0  0  0  0  0  0  0  0  0  0
    1.0370    3.6208    0.0000 C   0  0  0  0  0  0  0  0  0  0  0  0
   -2.2802   -0.9109    0.0000 C   0  0  0  0  0  0  0  0  0  0  0  0
   -3.2942   -0.0402    0.0000 N   0  0  0  0  0  0  0  0  0  0  0  0
   -2.4692   -0.1089    0.0000 N   0  0  0  0  0  0  0  0  0  0  0  0
   -3.6094   -0.7964    0.0000 N   0  0  0  0  0  0  0  0  0  0  0  0
    1.7531    2.3719    0.0000 N   0  0  0  0  0  0  0  0  0  0  0  0
   -2.9848   -1.3406    0.0000 N   0  0  0  0  0  0  0  0  0  0  0  0
   -1.6328   -1.4323    0.0000 C   0  0  0  0  0  0  0  0  0  0  0  0
    1.7531    4.0333    0.0000 C   0  0  0  0  0  0  0  0  0  0  0  0
   -0.8708   -1.1401    0.0000 C   0  0  0  0  0  0  0  0  0  0  0  0
   -0.4641    2.1255    0.0000 C   0  0  0  0  0  0  0  0  0  0  0  0
   -0.7333   -0.3151    0.0000 C   0  0  0  0  0  0  0  0  0  0  0  0
    2.4636    2.7844    0.0000 C   0  0  0  0  0  0  0  0  0  0  0  0
    2.4636    3.6208    0.0000 C   0  0  0  0  0  0  0  0  0  0  0  0
   -1.3750    0.2005    0.0000 C   0  0  0  0  0  0  0  0  0  0  0  0
    0.0402   -0.0230    0.0000 C   0  0  0  0  0  0  0  0  0  0  0  0
   -0.4755    1.3005    0.0000 C   0  0  0  0  0  0  0  0  0  0  0  0
   -1.0598    3.2083    0.0000 C   0  0  0  0  0  0  0  0  0  0  0  0
    0.1605    0.7906    0.0000 C   0  0  0  0  0  0  0  0  0  0  0  0
   -1.2489    1.0141    0.0000 C   0  0  0  0  0  0  0  0  0  0  0  0
   -1.7645   -2.2401    0.0000 C   0  0  0  0  0  0  0  0  0  0  0  0
   -0.2234   -1.6558    0.0000 C   0  0  0  0  0  0  0  0  0  0  0  0
    1.7531    4.8583    0.0000 C   0  0  0  0  0  0  0  0  0  0  0  0
    3.1855    2.3719    0.0000 C   0  0  0  0  0  0  0  0  0  0  0  0
   -1.4723    3.9187    0.0000 C   0  0  0  0  0  0  0  0  0  0  0  0
   -0.3552   -2.4636    0.0000 C   0  0  0  0  0  0  0  0  0  0  0  0
   -1.1286   -2.7672    0.0000 C   0  0  0  0  0  0  0  0  0  0  0  0
  2  1  1  0
  3  4  2  0
  4  1  1  0
  5  2  2  0
  6 12  1  0
  7  8  1  0
  8  6  1  0
  9 11  1  0
 10  2  1  0
 11  6  2  0
 12 14  1  0
 13  5  1  0
 14 16  1  0
 15  1  1  0
 16 19  2  0
 17 10  2  0
 18 17  1  0
 19 24  1  0
 20 23  2  0
 21 15  1  0
 22  4  1  0
 23 21  1  0
 24 21  2  0
 25 12  2  0
 26 14  2  0
 27 13  1  0
 28 17  1  0
 29 22  1  0
 30 26  1  0
 31 30  2  0
  3  5  1  0
 20 16  1  0
 13 18  2  0
 31 25  1  0
  9  7  2  0
M  END
>  <From>  (1) 
www.bindingDB.org

>  <BindingDB Reactant_set_id>  (1) 
50002569

>  <Ligand InChI>  (1) 
InChI=1S/C24H23N7/c1-4-21-26-22-15(2)13-16(3)25-24(22)31(21)14-17-9-11-18(12-10-17)19-7-5-6-8-20(19)23-27-29-30-28-23/h5-13H,4,14H2,1-3H3,(H,27,28,29,30)

>  <Ligand InChI Key>  (1) 
YFWXFHNZGKNDBC-UHFFFAOYSA-N

>  <BindingDB MonomerID>  (1) 
50009718

>  <BindingDB Ligand Name>  (1) 
2-Ethyl-5,7-dimethyl-3-[2'-(1H-tetrazol-5-yl)-biphenyl-4-ylmethyl]-3H-imidazo[4,5-b]pyridine::2-Ethyl-5,7-dimethyl-3-[2'-(1H-tetrazol-5-yl)-biphenyl-4-ylmethyl]-3H-imidazo[4,5-b]pyridine (L-158809)::2-Ethyl-5,7-dimethyl-3-[2'-(1H-tetrazol-5-yl)-biphenyl-4-ylmethyl]-3H-imidazo[4,5-b]pyridine (L158809)::2-Ethyl-5,7-dimethyl-3-[2'-(2H-tetrazol-5-yl)-biphenyl-4-ylmethyl]-3H-imidazo[4,5-b]pyridine::2-Ethyl-5,7-dimethyl-3-[2'-(2H-tetrazol-5-yl)-biphenyl-4-ylmethyl]-3H-imidazo[4,5-b]pyridine(L-158809)::4'-(2-Ethyl-5,7-dimethyl-imidazo[4,5-b]pyridin-3-ylmethyl)-biphenyl-2-carboxylic acid::CHEMBL7550::L-158809

>  <Target Name>  (1) 
Type-1 angiotensin II receptor

>  <Target Source Organism According to Curator or DataSource>  (1) 
Oryctolagus cuniculus

>  <Ki (nM)>  (1) 


>  <IC50 (nM)>  (1) 
 0.300000

>  <Kd (nM)>  (1) 


>  <EC50 (nM)>  (1) 


>  <kon (M-1-s-1)>  (1) 


>  <koff (s-1)>  (1) 


>  <pH>  (1) 


>  <Temp C>  (1) 


>  <Curation/DataSource>  (1) 
ChEMBL

>  <Article DOI>  (1) 
10.1016/S0960-894X(01)81148-3

>  <BindingDB Entry DOI>  (1) 
10.7270/Q2PR7VXH

>  <PMID>  (1) 


>  <PubChem AID>  (1) 


>  <Patent Number>  (1) 


>  <Authors>  (1) 
Kim, D; Mantlo, NB; Tata, JR; Fitch, K; Dhanoa, D; Owens, K; Levorse, D; Siegl, PK; Chang, RS; Chen, T; Scheck, S; Zingaro, GJ; Kivlighn, SD; Greenlee, WJ

>  <Institution>  (1) 
TBA

>  <Link to Ligand in BindingDB>  (1) 
http://www.bindingdb.org/bind/chemsearch/marvin/MolStructure.jsp?monomerid=50009718

>  <Link to Ligand-Target Pair in BindingDB>  (1) 
http://www.bindingdb.org/jsp/dbsearch/PrimarySearch_ki.jsp?energyterm=kJ/mole&tag=r21&monomerid=50009718&enzyme=Type-1+angiotensin+II+receptor&column=ki&startPg=0&Increment=50&submit=Search

>  <Ligand HET ID in PDB>  (1) 


>  <PDB ID(s) for Ligand-Target Complex>  (1) 


>  <PubChem CID of Ligand>  (1) 
183134

>  <PubChem SID of Ligand>  (1) 
103922700

>  <ChEBI ID of Ligand>  (1) 


>  <ChEMBL ID of Ligand>  (1) 
CHEMBL7550

>  <DrugBank ID of Ligand>  (1) 


>  <IUPHAR_GRAC ID of Ligand>  (1) 


>  <KEGG ID of Ligand>  (1) 


>  <ZINC ID of Ligand>  (1) 
ZINC13732393

>  <Number of Protein Chains in Target (bigger than 1 implies a multichain complex)>  (1) 
1

>  <BindingDB Target Chain Sequence>  (1) 
MMLNSSTEDGIKRIQDDCPKAGRHNYIFVMIPTLYSIIFVVGIFGNSLAVIVIYFYMKLKTVASVFLLNLALADLCFLLTLPLWAVYTAMEYRWPFGNYLCKIASASVSFNLYASVFLLTCLSIDRYLAIVHPMKSRLRRTMLVAKVTCIIIWLLAGLASLPAIIHRNVFFIENTNITVCAFHYESQNSTLPIGLGLTKNILGFLFPFLIILTSYTLIWKALKKAYEIQKNKPRNDDIFKIIMAIVLFFFFSWVPHQIFTFLDVLIQLGVIHDCRIADIVDTAMPITICIAYFNNCLNPLFYGFLGKKFKKYFLQLLKYIPPKAKSHSNLSTKMSTLSYRPSDNVSSSSKKPVPCFEVE

>  <PDB ID(s) of Target Chain>  (1) 
6DO1,6OS0,6OS1,6OS2

>  <UniProt (SwissProt) Recommended Name of Target Chain>  (1) 
Type-1 angiotensin II receptor

>  <UniProt (SwissProt) Entry Name of Target Chain>  (1) 
AGTR1_RABIT

>  <UniProt (SwissProt) Primary ID of Target Chain>  (1) 
P34976

>  <UniProt (SwissProt) Secondary ID(s) of Target Chain>  (1) 


>  <UniProt (SwissProt) Alternative ID(s) of Target Chain>  (1) 


>  <UniProt (TrEMBL) Submitted Name of Target Chain>  (1) 


>  <UniProt (TrEMBL) Entry Name of Target Chain>  (1) 


>  <UniProt (TrEMBL) Primary ID of Target Chain>  (1) 


>  <UniProt (TrEMBL) Secondary ID(s) of Target Chain>  (1) 


>  <UniProt (TrEMBL) Alternative ID(s) of Target Chain>  (1) 


$$$$
