
     RDKit          2D

 39 45  0  0  0  0  0  0  0  0999 V2000
   29.4377  -12.2631    0.0000 C   0  0  0  0  0  0  0  0  0  0  0  0
   29.4365  -13.0905    0.0000 C   0  0  0  0  0  0  0  0  0  0  0  0
   30.1514  -13.5034    0.0000 C   0  0  0  0  0  0  0  0  0  0  0  0
   30.8678  -13.0901    0.0000 N   0  0  0  0  0  0  0  0  0  0  0  0
   30.8650  -12.2595    0.0000 C   0  0  0  0  0  0  0  0  0  0  0  0
   30.1495  -11.8503    0.0000 C   0  0  0  0  0  0  0  0  0  0  0  0
   28.7179  -11.0283    0.0000 C   0  0  0  0  0  0  0  0  0  0  0  0
   29.4343  -10.6149    0.0000 N   0  0  0  0  0  0  0  0  0  0  0  0
   29.4315   -9.7843    0.0000 C   0  0  0  0  0  0  0  0  0  0  0  0
   28.7161   -9.3752    0.0000 C   0  0  0  0  0  0  0  0  0  0  0  0
   28.0030  -10.6154    0.0000 C   0  0  0  0  0  0  0  0  0  0  0  0
   28.0043   -9.7864    0.0000 C   0  0  0  0  0  0  0  0  0  0  0  0
   27.2163   -9.5291    0.0000 N   0  0  0  0  0  0  0  0  0  0  0  0
   26.7280  -10.1990    0.0000 C   0  0  0  0  0  0  0  0  0  0  0  0
   27.2143  -10.8703    0.0000 N   0  0  0  0  0  0  0  0  0  0  0  0
   25.9029  -10.1979    0.0000 C   0  0  0  0  0  0  0  0  0  0  0  0
   25.4914   -9.4828    0.0000 C   0  0  0  0  0  0  0  0  0  0  0  0
   26.9565  -11.6549    0.0000 C   0  0  0  0  0  0  0  0  0  0  0  0
   26.9545  -12.9898    0.0000 C   0  0  0  0  0  0  0  0  0  0  0  0
   27.4404  -12.3231    0.0000 C   0  0  0  0  0  0  0  0  0  0  0  0
   26.1703  -12.7338    0.0000 C   0  0  0  0  0  0  0  0  0  0  0  0
   26.1733  -11.9103    0.0000 C   0  0  0  0  0  0  0  0  0  0  0  0
   25.4627  -11.4977    0.0000 C   0  0  0  0  0  0  0  0  0  0  0  0
   24.7487  -11.9075    0.0000 C   0  0  0  0  0  0  0  0  0  0  0  0
   24.7497  -12.7341    0.0000 C   0  0  0  0  0  0  0  0  0  0  0  0
   25.4608  -13.1430    0.0000 C   0  0  0  0  0  0  0  0  0  0  0  0
   24.0361  -13.1496    0.0000 C   0  0  0  0  0  0  0  0  0  0  0  0
   23.3207  -12.7364    0.0000 C   0  0  0  0  0  0  0  0  0  0  0  0
   22.6073  -13.1493    0.0000 C   0  0  0  0  0  0  0  0  0  0  0  0
   22.6080  -13.9752    0.0000 C   0  0  0  0  0  0  0  0  0  0  0  0
   23.3281  -14.3865    0.0000 C   0  0  0  0  0  0  0  0  0  0  0  0
   24.0386  -13.9713    0.0000 C   0  0  0  0  0  0  0  0  0  0  0  0
   24.7558  -14.3813    0.0000 C   0  0  0  0  0  0  0  0  0  0  0  0
   24.8456  -15.2015    0.0000 N   0  0  0  0  0  0  0  0  0  0  0  0
   25.6533  -15.3696    0.0000 N   0  0  0  0  0  0  0  0  0  0  0  0
   26.0628  -14.6533    0.0000 N   0  0  0  0  0  0  0  0  0  0  0  0
   25.5081  -14.0425    0.0000 N   0  0  0  0  0  0  0  0  0  0  0  0
   28.7177  -11.8533    0.0000 O   0  0  0  0  0  0  0  0  0  0  0  0
   30.1495  -11.0263    0.0000 C   0  0  0  0  0  0  0  0  0  0  0  0
  1  2  2  0
  2  3  1  0
  3  4  2  0
  4  5  1  0
  5  6  2  0
  6  1  1  0
 11  7  1  0
  7  8  1  0
  8  9  1  0
  9 10  2  0
 10 12  1  0
 11 12  2  0
 12 13  1  0
 13 14  2  0
 14 15  1  0
 15 11  1  0
 14 16  1  0
 16 17  1  0
 18 22  1  0
 21 19  1  0
 19 20  1  0
 18 20  1  0
 18 15  1  1
 21 22  2  0
 22 23  1  0
 23 24  2  0
 24 25  1  0
 25 26  2  0
 26 21  1  0
 27 28  2  0
 28 29  1  0
 29 30  2  0
 30 31  1  0
 31 32  2  0
 32 27  1  0
 25 27  1  0
 33 34  1  0
 34 35  1  0
 35 36  2  0
 36 37  1  0
 37 33  2  0
 32 33  1  0
  7 38  2  0
  8 39  1  0
 39  6  1  0
M  END
>  <From>  (1) 
www.bindingDB.org

>  <BindingDB Reactant_set_id>  (1) 
51045883

>  <Ligand InChI>  (1) 
InChI=1S/C30H26N8O/c1-2-27-32-25-13-15-37(18-19-6-5-14-31-17-19)30(39)28(25)38(27)26-12-10-21-16-20(9-11-23(21)26)22-7-3-4-8-24(22)29-33-35-36-34-29/h3-9,11,13-17,26H,2,10,12,18H2,1H3,(H,33,34,35,36)/t26-/m0/s1

>  <Ligand InChI Key>  (1) 
VAKAMIMEKPQCGO-SANMLTNESA-N

>  <BindingDB MonomerID>  (1) 
50426780

>  <BindingDB Ligand Name>  (1) 
CHEMBL2322172

>  <Target Name>  (1) 
Type-1 angiotensin II receptor

>  <Target Source Organism According to Curator or DataSource>  (1) 
Homo sapiens

>  <Ki (nM)>  (1) 


>  <IC50 (nM)>  (1) 
 45

>  <Kd (nM)>  (1) 


>  <EC50 (nM)>  (1) 


>  <kon (M-1-s-1)>  (1) 


>  <koff (s-1)>  (1) 


>  <pH>  (1) 


>  <Temp C>  (1) 


>  <Curation/DataSource>  (1) 
ChEMBL

>  <Article DOI>  (1) 
10.1016/j.bmcl.2012.11.088

>  <BindingDB Entry DOI>  (1) 
10.7270/Q2542PW7

>  <PMID>  (1) 
23265881

>  <PubChem AID>  (1) 


>  <Patent Number>  (1) 


>  <Authors>  (1) 
Casimiro-Garcia, A; Heemstra, RJ; Bigge, CF; Chen, J; Ciske, FA; Davis, JA; Ellis, T; Esmaeil, N; Flynn, D; Han, S; Jalaie, M; Ohren, JF; Powell, NA

>  <Institution>  (1) 
Pfizer Inc

>  <Link to Ligand in BindingDB>  (1) 
http://www.bindingdb.org/bind/chemsearch/marvin/MolStructure.jsp?monomerid=50426780

>  <Link to Ligand-Target Pair in BindingDB>  (1) 
http://www.bindingdb.org/jsp/dbsearch/PrimarySearch_ki.jsp?energyterm=kJ/mole&tag=r21&monomerid=50426780&enzyme=Type-1+angiotensin+II+receptor&column=ki&startPg=0&Increment=50&submit=Search

>  <Ligand HET ID in PDB>  (1) 


>  <PDB ID(s) for Ligand-Target Complex>  (1) 


>  <PubChem CID of Ligand>  (1) 
71521506

>  <PubChem SID of Ligand>  (1) 
164155655

>  <ChEBI ID of Ligand>  (1) 


>  <ChEMBL ID of Ligand>  (1) 
CHEMBL2322172

>  <DrugBank ID of Ligand>  (1) 


>  <IUPHAR_GRAC ID of Ligand>  (1) 


>  <KEGG ID of Ligand>  (1) 


>  <ZINC ID of Ligand>  (1) 
ZINC95585773

>  <Number of Protein Chains in Target (bigger than 1 implies a multichain complex)>  (1) 
1

>  <BindingDB Target Chain Sequence>  (1) 
MILNSSTEDGIKRIQDDCPKAGRHNYIFVMIPTLYSIIFVVGIFGNSLVVIVIYFYMKLKTVASVFLLNLALADLCFLLTLPLWAVYTAMEYRWPFGNYLCKIASASVSFNLYASVFLLTCLSIDRYLAIVHPMKSRLRRTMLVAKVTCIIIWLLAGLASLPAIIHRNVFFIENTNITVCAFHYESQNSTLPIGLGLTKNILGFLFPFLIILTSYTLIWKALKKAYEIQKNKPRNDDIFKIIMAIVLFFFFSWIPHQIFTFLDVLIQLGIIRDCRIADIVDTAMPITICIAYFNNCLNPLFYGFLGKKFKRYFLQLLKYIPPKAKSHSNLSTKMSTLSYRPSDNVSSSTKKPAPCFEVE

>  <PDB ID(s) of Target Chain>  (1) 
6DO1,6OS0,6OS1,6OS2

>  <UniProt (SwissProt) Recommended Name of Target Chain>  (1) 
Type-1 angiotensin II receptor

>  <UniProt (SwissProt) Entry Name of Target Chain>  (1) 
AGTR1_HUMAN

>  <UniProt (SwissProt) Primary ID of Target Chain>  (1) 
P30556

>  <UniProt (SwissProt) Secondary ID(s) of Target Chain>  (1) 
Q13725 Q8TBK4

>  <UniProt (SwissProt) Alternative ID(s) of Target Chain>  (1) 


>  <UniProt (TrEMBL) Submitted Name of Target Chain>  (1) 


>  <UniProt (TrEMBL) Entry Name of Target Chain>  (1) 


>  <UniProt (TrEMBL) Primary ID of Target Chain>  (1) 


>  <UniProt (TrEMBL) Secondary ID(s) of Target Chain>  (1) 


>  <UniProt (TrEMBL) Alternative ID(s) of Target Chain>  (1) 


$$$$
