
     RDKit          2D

 44 48  0  0  0  0  0  0  0  0999 V2000
    4.0042   -3.4292    0.0000 S   0  0  0  0  0  0  0  0  0  0  0  0
    0.4417   -2.1917    0.0000 N   0  0  0  0  0  0  0  0  0  0  0  0
    1.1542   -1.7875    0.0000 C   0  0  0  0  0  0  0  0  0  0  0  0
    1.1542   -0.9625    0.0000 C   0  0  0  0  0  0  0  0  0  0  0  0
   -0.2625   -1.7875    0.0000 C   0  0  0  0  0  0  0  0  0  0  0  0
   -0.2625   -0.9625    0.0000 N   0  0  0  0  0  0  0  0  0  0  0  0
    4.8292   -3.4292    0.0000 N   0  0  0  0  0  0  0  0  0  0  0  0
    0.4417   -0.5417    0.0000 C   0  0  0  0  0  0  0  0  0  0  0  0
    4.0125   -4.2542    0.0000 C   0  0  0  0  0  0  0  0  0  0  0  0
    5.1417   -2.6625    0.0000 C   0  0  0  0  0  0  0  0  0  0  0  0
    1.8667   -0.5625    0.0000 C   0  0  0  0  0  0  0  0  0  0  0  0
    3.3000   -4.6667    0.0000 C   0  0  0  0  0  0  0  0  0  0  0  0
    3.2917   -3.0167    0.0000 O   0  0  0  0  0  0  0  0  0  0  0  0
    4.0042   -2.6042    0.0000 O   0  0  0  0  0  0  0  0  0  0  0  0
    0.4417   -3.0167    0.0000 C   0  0  0  0  0  0  0  0  0  0  0  0
    1.8792    0.2625    0.0000 C   0  0  0  0  0  0  0  0  0  0  0  0
    5.9625   -2.5542    0.0000 N   0  0  0  0  0  0  0  0  0  0  0  0
    1.8667   -2.2000    0.0000 O   0  0  0  0  0  0  0  0  0  0  0  0
    2.5875   -4.2542    0.0000 C   0  0  0  0  0  0  0  0  0  0  0  0
    4.6417   -2.0125    0.0000 O   0  0  0  0  0  0  0  0  0  0  0  0
    0.4500    0.2833    0.0000 C   0  0  0  0  0  0  0  0  0  0  0  0
    1.1667    0.6833    0.0000 C   0  0  0  0  0  0  0  0  0  0  0  0
    1.8667   -4.6667    0.0000 C   0  0  0  0  0  0  0  0  0  0  0  0
    2.5792   -3.4292    0.0000 C   0  0  0  0  0  0  0  0  0  0  0  0
    1.1625   -3.4292    0.0000 C   0  0  0  0  0  0  0  0  0  0  0  0
    2.6000    0.6708    0.0000 C   0  0  0  0  0  0  0  0  0  0  0  0
    6.2750   -1.7917    0.0000 C   0  0  0  0  0  0  0  0  0  0  0  0
   -0.9833   -2.2000    0.0000 C   0  0  0  0  0  0  0  0  0  0  0  0
    1.8667   -3.0167    0.0000 C   0  0  0  0  0  0  0  0  0  0  0  0
    1.1542   -4.2542    0.0000 C   0  0  0  0  0  0  0  0  0  0  0  0
    4.7250   -4.6625    0.0000 C   0  0  0  0  0  0  0  0  0  0  0  0
    3.3000   -5.4917    0.0000 C   0  0  0  0  0  0  0  0  0  0  0  0
    2.6125    1.4958    0.0000 C   0  0  0  0  0  0  0  0  0  0  0  0
    3.3125    0.2458    0.0000 C   0  0  0  0  0  0  0  0  0  0  0  0
    7.0917   -1.6792    0.0000 C   0  0  0  0  0  0  0  0  0  0  0  0
    5.7667   -1.1417    0.0000 C   0  0  0  0  0  0  0  0  0  0  0  0
   -1.6958   -1.7875    0.0000 C   0  0  0  0  0  0  0  0  0  0  0  0
   -2.4083   -2.2000    0.0000 C   0  0  0  0  0  0  0  0  0  0  0  0
    4.7292   -5.4917    0.0000 C   0  0  0  0  0  0  0  0  0  0  0  0
    4.0167   -5.9042    0.0000 C   0  0  0  0  0  0  0  0  0  0  0  0
   -3.1208   -1.7875    0.0000 C   0  0  0  0  0  0  0  0  0  0  0  0
    6.0792   -0.3792    0.0000 C   0  0  0  0  0  0  0  0  0  0  0  0
    7.4042   -0.9250    0.0000 C   0  0  0  0  0  0  0  0  0  0  0  0
    6.9042   -0.2667    0.0000 C   0  0  0  0  0  0  0  0  0  0  0  0
  2 15  1  0
  3  2  1  0
  4  3  1  0
  5  2  1  0
  6  5  2  0
  7  1  1  0
  8  6  1  0
  9  1  1  0
 10  7  1  0
 11  4  2  0
 12  9  1  0
 13  1  2  0
 14  1  2  0
 15 25  1  0
 16 11  1  0
 17 10  1  0
 18  3  2  0
 19 12  1  0
 20 10  2  0
 21  8  2  0
 22 21  1  0
 23 19  2  0
 24 19  1  0
 25 29  1  0
 26 16  1  0
 27 17  1  0
 28  5  1  0
 29 24  2  0
 30 23  1  0
 31  9  2  0
 32 12  2  0
 33 26  1  0
 34 26  1  0
 35 27  2  0
 36 27  1  0
 37 28  1  0
 38 37  1  0
 39 31  1  0
 40 39  2  0
 41 38  1  0
 42 36  2  0
 43 35  1  0
 44 42  1  0
 32 40  1  0
 25 30  2  0
 43 44  2  0
  4  8  1  0
 16 22  2  0
M  END
>  <From>  (1) 
www.bindingDB.org

>  <BindingDB Reactant_set_id>  (1) 
50467674

>  <Ligand InChI>  (1) 
InChI=1S/C35H36N4O4S/c1-4-5-15-33-37-31-21-20-27(24(2)3)22-30(31)34(40)39(33)23-25-16-18-26(19-17-25)29-13-9-10-14-32(29)44(42,43)38-35(41)36-28-11-7-6-8-12-28/h6-14,16-22,24H,4-5,15,23H2,1-3H3,(H2,36,38,41)

>  <Ligand InChI Key>  (1) 
RSQKLNPEVRMWQM-UHFFFAOYSA-N

>  <BindingDB MonomerID>  (1) 
50282448

>  <BindingDB Ligand Name>  (1) 
CHEMBL167929::Quinazolinone Biphenyl Acylsulfonamide derivative

>  <Target Name>  (1) 
Type-1 angiotensin II receptor

>  <Target Source Organism According to Curator or DataSource>  (1) 
Oryctolagus cuniculus

>  <Ki (nM)>  (1) 


>  <IC50 (nM)>  (1) 
 5.9

>  <Kd (nM)>  (1) 


>  <EC50 (nM)>  (1) 


>  <kon (M-1-s-1)>  (1) 


>  <koff (s-1)>  (1) 


>  <pH>  (1) 


>  <Temp C>  (1) 


>  <Curation/DataSource>  (1) 
ChEMBL

>  <Article DOI>  (1) 
10.1016/S0960-894X(01)81125-2

>  <BindingDB Entry DOI>  (1) 
10.7270/Q2J1033H

>  <PMID>  (1) 


>  <PubChem AID>  (1) 


>  <Patent Number>  (1) 


>  <Authors>  (1) 
Chakravarty, PK; Strelitz, RA; Chen, TB; Chang, RS; Lotti, VJ; Zingaro, GJ; Schorn, TW; Kivlighn, SD; Siegel, PK; Patchett, AA; Greenlee, WJ

>  <Institution>  (1) 
TBA

>  <Link to Ligand in BindingDB>  (1) 
http://www.bindingdb.org/bind/chemsearch/marvin/MolStructure.jsp?monomerid=50282448

>  <Link to Ligand-Target Pair in BindingDB>  (1) 
http://www.bindingdb.org/jsp/dbsearch/PrimarySearch_ki.jsp?energyterm=kJ/mole&tag=r21&monomerid=50282448&enzyme=Type-1+angiotensin+II+receptor&column=ki&startPg=0&Increment=50&submit=Search

>  <Ligand HET ID in PDB>  (1) 


>  <PDB ID(s) for Ligand-Target Complex>  (1) 


>  <PubChem CID of Ligand>  (1) 
44379217

>  <PubChem SID of Ligand>  (1) 
104124122

>  <ChEBI ID of Ligand>  (1) 


>  <ChEMBL ID of Ligand>  (1) 
CHEMBL167929

>  <DrugBank ID of Ligand>  (1) 


>  <IUPHAR_GRAC ID of Ligand>  (1) 


>  <KEGG ID of Ligand>  (1) 


>  <ZINC ID of Ligand>  (1) 
ZINC27885674

>  <Number of Protein Chains in Target (bigger than 1 implies a multichain complex)>  (1) 
1

>  <BindingDB Target Chain Sequence>  (1) 
MMLNSSTEDGIKRIQDDCPKAGRHNYIFVMIPTLYSIIFVVGIFGNSLAVIVIYFYMKLKTVASVFLLNLALADLCFLLTLPLWAVYTAMEYRWPFGNYLCKIASASVSFNLYASVFLLTCLSIDRYLAIVHPMKSRLRRTMLVAKVTCIIIWLLAGLASLPAIIHRNVFFIENTNITVCAFHYESQNSTLPIGLGLTKNILGFLFPFLIILTSYTLIWKALKKAYEIQKNKPRNDDIFKIIMAIVLFFFFSWVPHQIFTFLDVLIQLGVIHDCRIADIVDTAMPITICIAYFNNCLNPLFYGFLGKKFKKYFLQLLKYIPPKAKSHSNLSTKMSTLSYRPSDNVSSSSKKPVPCFEVE

>  <PDB ID(s) of Target Chain>  (1) 
6DO1,6OS0,6OS1,6OS2

>  <UniProt (SwissProt) Recommended Name of Target Chain>  (1) 
Type-1 angiotensin II receptor

>  <UniProt (SwissProt) Entry Name of Target Chain>  (1) 
AGTR1_RABIT

>  <UniProt (SwissProt) Primary ID of Target Chain>  (1) 
P34976

>  <UniProt (SwissProt) Secondary ID(s) of Target Chain>  (1) 


>  <UniProt (SwissProt) Alternative ID(s) of Target Chain>  (1) 


>  <UniProt (TrEMBL) Submitted Name of Target Chain>  (1) 


>  <UniProt (TrEMBL) Entry Name of Target Chain>  (1) 


>  <UniProt (TrEMBL) Primary ID of Target Chain>  (1) 


>  <UniProt (TrEMBL) Secondary ID(s) of Target Chain>  (1) 


>  <UniProt (TrEMBL) Alternative ID(s) of Target Chain>  (1) 


$$$$
