
     RDKit          2D

 42 46  0  0  0  0  0  0  0  0999 V2000
   -0.2806   -6.6916    0.0000 C   0  0  0  0  0  0  0  0  0  0  0  0
   -0.2818   -7.5190    0.0000 C   0  0  0  0  0  0  0  0  0  0  0  0
    0.4331   -7.9319    0.0000 C   0  0  0  0  0  0  0  0  0  0  0  0
    0.4313   -6.2789    0.0000 C   0  0  0  0  0  0  0  0  0  0  0  0
    1.1466   -6.6880    0.0000 C   0  0  0  0  0  0  0  0  0  0  0  0
    1.1515   -7.5144    0.0000 C   0  0  0  0  0  0  0  0  0  0  0  0
    1.9390   -7.7653    0.0000 N   0  0  0  0  0  0  0  0  0  0  0  0
    2.4209   -7.0938    0.0000 C   0  0  0  0  0  0  0  0  0  0  0  0
    1.9311   -6.4281    0.0000 N   0  0  0  0  0  0  0  0  0  0  0  0
    3.2459   -7.0889    0.0000 C   0  0  0  0  0  0  0  0  0  0  0  0
    3.6542   -6.3720    0.0000 C   0  0  0  0  0  0  0  0  0  0  0  0
    4.4791   -6.3672    0.0000 C   0  0  0  0  0  0  0  0  0  0  0  0
    2.1985   -8.5484    0.0000 C   0  0  0  0  0  0  0  0  0  0  0  0
    3.0208   -8.5458    0.0000 C   0  0  0  0  0  0  0  0  0  0  0  0
    3.4324   -9.2591    0.0000 C   0  0  0  0  0  0  0  0  0  0  0  0
    4.2540   -9.2569    0.0000 C   0  0  0  0  0  0  0  0  0  0  0  0
    4.6638   -8.5429    0.0000 C   0  0  0  0  0  0  0  0  0  0  0  0
    4.2460   -7.8296    0.0000 C   0  0  0  0  0  0  0  0  0  0  0  0
    3.4257   -7.8353    0.0000 C   0  0  0  0  0  0  0  0  0  0  0  0
    5.4856   -8.5391    0.0000 C   0  0  0  0  0  0  0  0  0  0  0  0
    5.9006   -9.2533    0.0000 C   0  0  0  0  0  0  0  0  0  0  0  0
    6.7248   -9.2500    0.0000 C   0  0  0  0  0  0  0  0  0  0  0  0
    7.1350   -8.5332    0.0000 C   0  0  0  0  0  0  0  0  0  0  0  0
    6.7149   -7.8182    0.0000 C   0  0  0  0  0  0  0  0  0  0  0  0
    5.8920   -7.8250    0.0000 C   0  0  0  0  0  0  0  0  0  0  0  0
    5.4723   -7.1127    0.0000 C   0  0  0  0  0  0  0  0  0  0  0  0
    5.8797   -6.3953    0.0000 O   0  0  0  0  0  0  0  0  0  0  0  0
    4.6473   -7.1187    0.0000 O   0  0  0  0  0  0  0  0  0  0  0  0
    0.4288   -5.4539    0.0000 C   0  0  0  0  0  0  0  0  0  0  0  0
   -0.9966   -7.9309    0.0000 C   0  0  0  0  0  0  0  0  0  0  0  0
   -1.7107   -7.5179    0.0000 N   0  0  0  0  0  0  0  0  0  0  0  0
   -0.9972   -8.7559    0.0000 O   0  0  0  0  0  0  0  0  0  0  0  0
   -2.4255   -7.9298    0.0000 C   0  0  0  0  0  0  0  0  0  0  0  0
   -3.1396   -7.5167    0.0000 C   0  0  0  0  0  0  0  0  0  0  0  0
   -3.8544   -7.9287    0.0000 C   0  0  0  0  0  0  0  0  0  0  0  0
   -4.5651   -7.5147    0.0000 C   0  0  0  0  0  0  0  0  0  0  0  0
   -5.2794   -7.9260    0.0000 C   0  0  0  0  0  0  0  0  0  0  0  0
   -5.2805   -8.7519    0.0000 C   0  0  0  0  0  0  0  0  0  0  0  0
   -4.5613   -9.1648    0.0000 C   0  0  0  0  0  0  0  0  0  0  0  0
   -3.8500   -8.7511    0.0000 C   0  0  0  0  0  0  0  0  0  0  0  0
   -5.9886   -9.1647    0.0000 O   0  0  0  0  0  0  0  0  0  0  0  0
   -6.7118   -8.7553    0.0000 C   0  0  0  0  0  0  0  0  0  0  0  0
  4  1  2  0
 20 21  2  0
  8 10  1  0
 21 22  1  0
  5  6  2  0
 22 23  2  0
 10 11  1  0
 23 24  1  0
 24 25  2  0
 25 20  1  0
 17 20  1  0
 11 12  1  0
  2  3  2  0
  7 13  1  0
 26 27  1  0
 26 28  2  0
 25 26  1  0
  3  6  1  0
  4 29  1  0
 13 14  1  0
  2 30  1  0
  1  2  1  0
 30 31  1  0
 14 15  2  0
 30 32  2  0
  5  4  1  0
 31 33  1  0
 15 16  1  0
 33 34  1  0
  6  7  1  0
 34 35  1  0
 16 17  2  0
 35 36  2  0
  7  8  1  0
 36 37  1  0
 17 18  1  0
 37 38  2  0
  8  9  2  0
 38 39  1  0
 18 19  2  0
 39 40  2  0
 40 35  1  0
 19 14  1  0
 38 41  1  0
  9  5  1  0
 41 42  1  0
M  END
>  <From>  (1) 
www.bindingDB.org

>  <BindingDB Reactant_set_id>  (1) 
50716817

>  <Ligand InChI>  (1) 
InChI=1S/C35H35N3O4/c1-4-7-32-37-33-23(2)20-27(34(39)36-19-18-24-12-16-28(42-3)17-13-24)21-31(33)38(32)22-25-10-14-26(15-11-25)29-8-5-6-9-30(29)35(40)41/h5-6,8-17,20-21H,4,7,18-19,22H2,1-3H3,(H,36,39)(H,40,41)

>  <Ligand InChI Key>  (1) 
RIZLSQIVYHEYRR-UHFFFAOYSA-N

>  <BindingDB MonomerID>  (1) 
50363831

>  <BindingDB Ligand Name>  (1) 
CHEMBL1945008

>  <Target Name>  (1) 
Type-1 angiotensin II receptor

>  <Target Source Organism According to Curator or DataSource>  (1) 
Homo sapiens

>  <Ki (nM)>  (1) 


>  <IC50 (nM)>  (1) 
 214

>  <Kd (nM)>  (1) 


>  <EC50 (nM)>  (1) 


>  <kon (M-1-s-1)>  (1) 


>  <koff (s-1)>  (1) 


>  <pH>  (1) 


>  <Temp C>  (1) 


>  <Curation/DataSource>  (1) 
ChEMBL

>  <Article DOI>  (1) 
10.1016/j.ejmech.2012.01.009

>  <BindingDB Entry DOI>  (1) 
10.7270/Q29K4BPW

>  <PMID>  (1) 
22309912

>  <PubChem AID>  (1) 


>  <Patent Number>  (1) 


>  <Authors>  (1) 
Wang, JL; Zhang, J; Zhou, ZM; Li, ZH; Xue, WZ; Xu, D; Hao, LP; Han, XF; Fei, F; Liu, T; Liang, AH

>  <Institution>  (1) 
Beijing Institute of Technology

>  <Link to Ligand in BindingDB>  (1) 
http://www.bindingdb.org/bind/chemsearch/marvin/MolStructure.jsp?monomerid=50363831

>  <Link to Ligand-Target Pair in BindingDB>  (1) 
http://www.bindingdb.org/jsp/dbsearch/PrimarySearch_ki.jsp?energyterm=kJ/mole&tag=r21&monomerid=50363831&enzyme=Type-1+angiotensin+II+receptor&column=ki&startPg=0&Increment=50&submit=Search

>  <Ligand HET ID in PDB>  (1) 


>  <PDB ID(s) for Ligand-Target Complex>  (1) 


>  <PubChem CID of Ligand>  (1) 
46910583

>  <PubChem SID of Ligand>  (1) 
136967893

>  <ChEBI ID of Ligand>  (1) 


>  <ChEMBL ID of Ligand>  (1) 
CHEMBL1945008

>  <DrugBank ID of Ligand>  (1) 


>  <IUPHAR_GRAC ID of Ligand>  (1) 


>  <KEGG ID of Ligand>  (1) 


>  <ZINC ID of Ligand>  (1) 
ZINC73198487

>  <Number of Protein Chains in Target (bigger than 1 implies a multichain complex)>  (1) 
1

>  <BindingDB Target Chain Sequence>  (1) 
MILNSSTEDGIKRIQDDCPKAGRHNYIFVMIPTLYSIIFVVGIFGNSLVVIVIYFYMKLKTVASVFLLNLALADLCFLLTLPLWAVYTAMEYRWPFGNYLCKIASASVSFNLYASVFLLTCLSIDRYLAIVHPMKSRLRRTMLVAKVTCIIIWLLAGLASLPAIIHRNVFFIENTNITVCAFHYESQNSTLPIGLGLTKNILGFLFPFLIILTSYTLIWKALKKAYEIQKNKPRNDDIFKIIMAIVLFFFFSWIPHQIFTFLDVLIQLGIIRDCRIADIVDTAMPITICIAYFNNCLNPLFYGFLGKKFKRYFLQLLKYIPPKAKSHSNLSTKMSTLSYRPSDNVSSSTKKPAPCFEVE

>  <PDB ID(s) of Target Chain>  (1) 
6DO1,6OS0,6OS1,6OS2

>  <UniProt (SwissProt) Recommended Name of Target Chain>  (1) 
Type-1 angiotensin II receptor

>  <UniProt (SwissProt) Entry Name of Target Chain>  (1) 
AGTR1_HUMAN

>  <UniProt (SwissProt) Primary ID of Target Chain>  (1) 
P30556

>  <UniProt (SwissProt) Secondary ID(s) of Target Chain>  (1) 
Q13725 Q8TBK4

>  <UniProt (SwissProt) Alternative ID(s) of Target Chain>  (1) 


>  <UniProt (TrEMBL) Submitted Name of Target Chain>  (1) 


>  <UniProt (TrEMBL) Entry Name of Target Chain>  (1) 


>  <UniProt (TrEMBL) Primary ID of Target Chain>  (1) 


>  <UniProt (TrEMBL) Secondary ID(s) of Target Chain>  (1) 


>  <UniProt (TrEMBL) Alternative ID(s) of Target Chain>  (1) 


$$$$
