
     RDKit          2D

 53 59  0  0  0  0  0  0  0  0999 V2000
    2.8906   -2.6137    0.0000 N   0  0  0  0  0  0  0  0  0  0  0  0
    3.5577   -2.1339    0.0000 C   0  0  0  0  0  0  0  0  0  0  0  0
    2.4849   -1.3498    0.0000 N   0  0  0  0  0  0  0  0  0  0  0  0
    3.3041   -1.3498    0.0000 C   0  0  0  0  0  0  0  0  0  0  0  0
    2.2275   -2.1299    0.0000 C   0  0  0  0  0  0  0  0  0  0  0  0
    5.0205   -6.3352    0.0000 C   0  0  0  0  0  0  0  0  0  0  0  0
    3.7137   -6.6121    0.0000 N   0  0  0  0  0  0  0  0  0  0  0  0
    8.5470   -1.5136    0.0000 C   0  0  0  0  0  0  0  0  0  0  0  0
    4.2638   -5.9958    0.0000 N   0  0  0  0  0  0  0  0  0  0  0  0
    4.1233   -7.3299    0.0000 N   0  0  0  0  0  0  0  0  0  0  0  0
    4.9308   -7.1621    0.0000 N   0  0  0  0  0  0  0  0  0  0  0  0
    8.8162   -2.2977    0.0000 N   0  0  0  0  0  0  0  0  0  0  0  0
    4.3457   -2.3913    0.0000 C   0  0  0  0  0  0  0  0  0  0  0  0
    5.7383   -5.9256    0.0000 C   0  0  0  0  0  0  0  0  0  0  0  0
    7.7629   -1.2561    0.0000 C   0  0  0  0  0  0  0  0  0  0  0  0
    5.7383   -5.0947    0.0000 C   0  0  0  0  0  0  0  0  0  0  0  0
    2.8906   -3.4406    0.0000 C   0  0  0  0  0  0  0  0  0  0  0  0
    5.0245   -4.6851    0.0000 C   0  0  0  0  0  0  0  0  0  0  0  0
    4.9620   -1.8413    0.0000 O   0  0  0  0  0  0  0  0  0  0  0  0
    9.0931   -0.8933    0.0000 O   0  0  0  0  0  0  0  0  0  0  0  0
    7.1427   -1.8062    0.0000 C   0  0  0  0  0  0  0  0  0  0  0  0
    8.2661   -2.9179    0.0000 C   0  0  0  0  0  0  0  0  0  0  0  0
    9.6237   -2.4615    0.0000 C   0  0  0  0  0  0  0  0  0  0  0  0
    4.4861   -2.9725    0.0000 O   0  0  0  0  0  0  0  0  0  0  0  0
    4.3106   -5.0947    0.0000 C   0  0  0  0  0  0  0  0  0  0  0  0
    5.0245   -3.8542    0.0000 C   0  0  0  0  0  0  0  0  0  0  0  0
    3.6045   -3.8542    0.0000 C   0  0  0  0  0  0  0  0  0  0  0  0
    3.7957   -0.6827    0.0000 C   0  0  0  0  0  0  0  0  0  0  0  0
    6.3586   -1.5487    0.0000 C   0  0  0  0  0  0  0  0  0  0  0  0
    5.7461   -2.0987    0.0000 C   0  0  0  0  0  0  0  0  0  0  0  0
    1.4395   -2.3796    0.0000 C   0  0  0  0  0  0  0  0  0  0  0  0
    3.5967   -4.6851    0.0000 C   0  0  0  0  0  0  0  0  0  0  0  0
    4.3106   -3.4446    0.0000 C   0  0  0  0  0  0  0  0  0  0  0  0
    7.5952   -0.4486    0.0000 C   0  0  0  0  0  0  0  0  0  0  0  0
    6.4522   -6.3429    0.0000 C   0  0  0  0  0  0  0  0  0  0  0  0
    6.4522   -4.6851    0.0000 C   0  0  0  0  0  0  0  0  0  0  0  0
    6.8033   -0.1912    0.0000 C   0  0  0  0  0  0  0  0  0  0  0  0
    7.4587   -2.7541    0.0000 C   0  0  0  0  0  0  0  0  0  0  0  0
    8.5353   -3.6981    0.0000 C   0  0  0  0  0  0  0  0  0  0  0  0
    9.8811   -3.2417    0.0000 C   0  0  0  0  0  0  0  0  0  0  0  0
   10.1620   -1.8373    0.0000 C   0  0  0  0  0  0  0  0  0  0  0  0
    6.1908   -0.7412    0.0000 C   0  0  0  0  0  0  0  0  0  0  0  0
    0.8231   -1.8256    0.0000 C   0  0  0  0  0  0  0  0  0  0  0  0
    4.6149   -0.7724    0.0000 C   0  0  0  0  0  0  0  0  0  0  0  0
    7.1661   -5.0947    0.0000 C   0  0  0  0  0  0  0  0  0  0  0  0
    7.1738   -5.9256    0.0000 C   0  0  0  0  0  0  0  0  0  0  0  0
    0.0390   -2.0753    0.0000 C   0  0  0  0  0  0  0  0  0  0  0  0
   10.9695   -1.9934    0.0000 C   0  0  0  0  0  0  0  0  0  0  0  0
    6.9164   -3.3744    0.0000 C   0  0  0  0  0  0  0  0  0  0  0  0
    7.9970   -4.3184    0.0000 C   0  0  0  0  0  0  0  0  0  0  0  0
   10.6964   -3.4055    0.0000 C   0  0  0  0  0  0  0  0  0  0  0  0
   11.2387   -2.7853    0.0000 C   0  0  0  0  0  0  0  0  0  0  0  0
    7.1778   -4.1584    0.0000 C   0  0  0  0  0  0  0  0  0  0  0  0
  2  1  1  0
  3  5  2  0
  4  2  2  0
  5  1  1  0
  6 14  1  0
  7  9  1  0
  8 15  1  0
  9  6  1  0
 10 11  1  0
 11  6  2  0
 12  8  1  0
 13  2  1  0
 14 16  1  0
 15 21  2  0
 16 18  1  0
 17  1  1  0
 18 26  2  0
 19 13  1  0
 20  8  2  0
 21 29  1  0
 22 12  1  0
 23 12  1  0
 24 13  2  0
 25 32  2  0
 26 33  1  0
 27 17  1  0
 28  4  1  0
 29 30  1  0
 30 19  1  0
 31  5  1  0
 32 27  1  0
 33 27  2  0
 34 37  2  0
 35 14  2  0
 36 16  2  0
 37 42  1  0
 38 22  2  0
 39 22  1  0
 40 23  2  0
 41 23  1  0
 42 29  2  0
 43 31  1  0
 44 28  1  0
 45 36  1  0
 46 45  2  0
 47 43  1  0
 48 41  2  0
 49 38  1  0
 50 39  2  0
 51 40  1  0
 52 48  1  0
 53 50  1  0
  3  4  1  0
 18 25  1  0
 34 15  1  0
 46 35  1  0
 10  7  2  0
 52 51  2  0
 53 49  2  0
M  END
>  <From>  (1) 
www.bindingDB.org

>  <BindingDB Reactant_set_id>  (1) 
50469165

>  <Ligand InChI>  (1) 
InChI=1S/C43H39N7O3/c1-3-14-39-44-38(4-2)40(49(39)28-30-23-25-32(26-24-30)36-21-11-12-22-37(36)41-45-47-48-46-41)43(52)53-29-31-15-13-16-33(27-31)42(51)50(34-17-7-5-8-18-34)35-19-9-6-10-20-35/h5-13,15-27H,3-4,14,28-29H2,1-2H3,(H,45,46,47,48)

>  <Ligand InChI Key>  (1) 
LPEIMGJKTRWYBQ-UHFFFAOYSA-N

>  <BindingDB MonomerID>  (1) 
50283239

>  <BindingDB Ligand Name>  (1) 
5-Ethyl-2-propyl-3-[2'-(1H-tetrazol-5-yl)-biphenyl-4-ylmethyl]-3H-imidazole-4-carboxylic acid 3-diphenylcarbamoyl-benzyl ester::CHEMBL305369

>  <Target Name>  (1) 
Type-1 angiotensin II receptor

>  <Target Source Organism According to Curator or DataSource>  (1) 
Homo sapiens

>  <Ki (nM)>  (1) 


>  <IC50 (nM)>  (1) 
 30

>  <Kd (nM)>  (1) 


>  <EC50 (nM)>  (1) 


>  <kon (M-1-s-1)>  (1) 


>  <koff (s-1)>  (1) 


>  <pH>  (1) 


>  <Temp C>  (1) 


>  <Curation/DataSource>  (1) 
ChEMBL

>  <Article DOI>  (1) 
10.1016/S0960-894X(00)80077-3

>  <BindingDB Entry DOI>  (1) 
10.7270/Q2DZ088W

>  <PMID>  (1) 


>  <PubChem AID>  (1) 


>  <Patent Number>  (1) 


>  <Authors>  (1) 
Santella, JB; Duncia, JV; Ensinger, CL; VanAtten, MK; Carini, DJ; Wexler, RR; Chiu, AT; Wong, PC; Timmermans, PB

>  <Institution>  (1) 
TBA

>  <Link to Ligand in BindingDB>  (1) 
http://www.bindingdb.org/bind/chemsearch/marvin/MolStructure.jsp?monomerid=50283239

>  <Link to Ligand-Target Pair in BindingDB>  (1) 
http://www.bindingdb.org/jsp/dbsearch/PrimarySearch_ki.jsp?energyterm=kJ/mole&tag=r21&monomerid=50283239&enzyme=Type-1+angiotensin+II+receptor&column=ki&startPg=0&Increment=50&submit=Search

>  <Ligand HET ID in PDB>  (1) 


>  <PDB ID(s) for Ligand-Target Complex>  (1) 


>  <PubChem CID of Ligand>  (1) 
44311609

>  <PubChem SID of Ligand>  (1) 
104124913

>  <ChEBI ID of Ligand>  (1) 


>  <ChEMBL ID of Ligand>  (1) 
CHEMBL305369

>  <DrugBank ID of Ligand>  (1) 


>  <IUPHAR_GRAC ID of Ligand>  (1) 


>  <KEGG ID of Ligand>  (1) 


>  <ZINC ID of Ligand>  (1) 
ZINC26292470

>  <Number of Protein Chains in Target (bigger than 1 implies a multichain complex)>  (1) 
1

>  <BindingDB Target Chain Sequence>  (1) 
MILNSSTEDGIKRIQDDCPKAGRHNYIFVMIPTLYSIIFVVGIFGNSLVVIVIYFYMKLKTVASVFLLNLALADLCFLLTLPLWAVYTAMEYRWPFGNYLCKIASASVSFNLYASVFLLTCLSIDRYLAIVHPMKSRLRRTMLVAKVTCIIIWLLAGLASLPAIIHRNVFFIENTNITVCAFHYESQNSTLPIGLGLTKNILGFLFPFLIILTSYTLIWKALKKAYEIQKNKPRNDDIFKIIMAIVLFFFFSWIPHQIFTFLDVLIQLGIIRDCRIADIVDTAMPITICIAYFNNCLNPLFYGFLGKKFKRYFLQLLKYIPPKAKSHSNLSTKMSTLSYRPSDNVSSSTKKPAPCFEVE

>  <PDB ID(s) of Target Chain>  (1) 
6DO1,6OS0,6OS1,6OS2

>  <UniProt (SwissProt) Recommended Name of Target Chain>  (1) 
Type-1 angiotensin II receptor

>  <UniProt (SwissProt) Entry Name of Target Chain>  (1) 
AGTR1_HUMAN

>  <UniProt (SwissProt) Primary ID of Target Chain>  (1) 
P30556

>  <UniProt (SwissProt) Secondary ID(s) of Target Chain>  (1) 
Q13725 Q8TBK4

>  <UniProt (SwissProt) Alternative ID(s) of Target Chain>  (1) 


>  <UniProt (TrEMBL) Submitted Name of Target Chain>  (1) 


>  <UniProt (TrEMBL) Entry Name of Target Chain>  (1) 


>  <UniProt (TrEMBL) Primary ID of Target Chain>  (1) 


>  <UniProt (TrEMBL) Secondary ID(s) of Target Chain>  (1) 


>  <UniProt (TrEMBL) Alternative ID(s) of Target Chain>  (1) 


$$$$
