
     RDKit          2D

 34 36  0  0  0  0  0  0  0  0999 V2000
    1.8667   -1.8042    0.0000 N   0  0  0  0  0  0  0  0  0  0  0  0
    2.5292   -1.3125    0.0000 C   0  0  0  0  0  0  0  0  0  0  0  0
    2.2792   -0.5292    0.0000 N   0  0  0  0  0  0  0  0  0  0  0  0
    1.4542   -0.5292    0.0000 N   0  0  0  0  0  0  0  0  0  0  0  0
    1.2000   -1.3167    0.0000 C   0  0  0  0  0  0  0  0  0  0  0  0
    5.4375   -3.8625    0.0000 C   0  0  0  0  0  0  0  0  0  0  0  0
    6.1542   -4.2750    0.0000 C   0  0  0  0  0  0  0  0  0  0  0  0
    6.8625   -3.8625    0.0000 C   0  0  0  0  0  0  0  0  0  0  0  0
    6.8542   -3.0292    0.0000 C   0  0  0  0  0  0  0  0  0  0  0  0
    4.7250   -4.2792    0.0000 N   0  0  0  0  0  0  0  0  0  0  0  0
    3.3542   -1.3125    0.0000 S   0  0  0  0  0  0  0  0  0  0  0  0
    1.8667   -2.6292    0.0000 C   0  0  0  0  0  0  0  0  0  0  0  0
    4.5917   -0.5917    0.0000 C   0  0  0  0  0  0  0  0  0  0  0  0
    5.4375   -3.0375    0.0000 O   0  0  0  0  0  0  0  0  0  0  0  0
    6.1375   -2.6250    0.0000 O   0  0  0  0  0  0  0  0  0  0  0  0
    5.0042   -1.3042    0.0000 O   0  0  0  0  0  0  0  0  0  0  0  0
    3.7667   -0.5917    0.0000 C   0  0  0  0  0  0  0  0  0  0  0  0
    4.0042   -3.8667    0.0000 C   0  0  0  0  0  0  0  0  0  0  0  0
    5.0000    0.1250    0.0000 N   0  0  0  0  0  0  0  0  0  0  0  0
    2.5792   -3.0375    0.0000 C   0  0  0  0  0  0  0  0  0  0  0  0
    7.5667   -2.6167    0.0000 O   0  0  0  0  0  0  0  0  0  0  0  0
    4.0042   -3.0375    0.0000 C   0  0  0  0  0  0  0  0  0  0  0  0
    3.3000   -4.2750    0.0000 C   0  0  0  0  0  0  0  0  0  0  0  0
    2.5792   -3.8667    0.0000 C   0  0  0  0  0  0  0  0  0  0  0  0
    3.2917   -2.6250    0.0000 C   0  0  0  0  0  0  0  0  0  0  0  0
    0.3750   -1.3167    0.0000 C   0  0  0  0  0  0  0  0  0  0  0  0
    6.1500   -5.1000    0.0000 C   0  0  0  0  0  0  0  0  0  0  0  0
    7.5750   -4.2667    0.0000 C   0  0  0  0  0  0  0  0  0  0  0  0
    5.8250    0.1333    0.0000 C   0  0  0  0  0  0  0  0  0  0  0  0
   -0.0375   -0.6000    0.0000 C   0  0  0  0  0  0  0  0  0  0  0  0
   -0.8625   -0.6000    0.0000 C   0  0  0  0  0  0  0  0  0  0  0  0
    6.8625   -5.5125    0.0000 C   0  0  0  0  0  0  0  0  0  0  0  0
    7.5792   -5.1000    0.0000 C   0  0  0  0  0  0  0  0  0  0  0  0
   -1.2750    0.1208    0.0000 C   0  0  0  0  0  0  0  0  0  0  0  0
  2  1  1  0
  3  2  2  0
  4  5  2  0
  5  1  1  0
  6 10  1  0
  7  6  1  0
  8  7  2  0
  9  8  1  0
 10 18  1  0
 11  2  1  0
 12  1  1  0
 13 17  1  0
 14  6  2  0
 15  9  2  0
 16 13  2  0
 17 11  1  0
 18 22  2  0
 19 13  1  0
 20 12  1  0
 21  9  1  0
 22 25  1  0
 23 24  2  0
 24 20  1  0
 25 20  2  0
 26  5  1  0
 27  7  1  0
 28  8  1  0
 29 19  1  0
 30 26  1  0
 31 30  1  0
 32 27  2  0
 33 32  1  0
 34 31  1  0
  3  4  1  0
 23 18  1  0
 28 33  2  0
M  END
>  <From>  (1) 
www.bindingDB.org

>  <BindingDB Reactant_set_id>  (1) 
51183592

>  <Ligand InChI>  (1) 
InChI=1S/C24H27N5O4S/c1-3-4-9-20-27-28-24(34-15-21(30)25-2)29(20)14-16-10-12-17(13-11-16)26-22(31)18-7-5-6-8-19(18)23(32)33/h5-8,10-13H,3-4,9,14-15H2,1-2H3,(H,25,30)(H,26,31)(H,32,33)

>  <Ligand InChI Key>  (1) 
DDUJLOANTAXFAA-UHFFFAOYSA-N

>  <BindingDB MonomerID>  (1) 
50047850

>  <BindingDB Ligand Name>  (1) 
CHEMBL156181::N-[4-(3-Butyl-5-methylcarbamoylmethylsulfanyl-[1,2,4]triazol-4-ylmethyl)-phenyl]-phthalamic acid

>  <Target Name>  (1) 
Type-1 angiotensin II receptor

>  <Target Source Organism According to Curator or DataSource>  (1) 
Oryctolagus cuniculus

>  <Ki (nM)>  (1) 


>  <IC50 (nM)>  (1) 
 720

>  <Kd (nM)>  (1) 


>  <EC50 (nM)>  (1) 


>  <kon (M-1-s-1)>  (1) 


>  <koff (s-1)>  (1) 


>  <pH>  (1) 


>  <Temp C>  (1) 


>  <Curation/DataSource>  (1) 
ChEMBL

>  <Article DOI>  (1) 
10.1007/s00044-011-9756-4

>  <BindingDB Entry DOI>  (1) 
10.7270/Q2833VXQ

>  <PMID>  (1) 


>  <PubChem AID>  (1) 


>  <Patent Number>  (1) 


>  <Authors>  (1) 
n/a

>  <Institution>  (1) 
n/a

>  <Link to Ligand in BindingDB>  (1) 
http://www.bindingdb.org/bind/chemsearch/marvin/MolStructure.jsp?monomerid=50047850

>  <Link to Ligand-Target Pair in BindingDB>  (1) 
http://www.bindingdb.org/jsp/dbsearch/PrimarySearch_ki.jsp?energyterm=kJ/mole&tag=r21&monomerid=50047850&enzyme=Type-1+angiotensin+II+receptor&column=ki&startPg=0&Increment=50&submit=Search

>  <Ligand HET ID in PDB>  (1) 


>  <PDB ID(s) for Ligand-Target Complex>  (1) 


>  <PubChem CID of Ligand>  (1) 
10345129

>  <PubChem SID of Ligand>  (1) 
103978414

>  <ChEBI ID of Ligand>  (1) 


>  <ChEMBL ID of Ligand>  (1) 
CHEMBL156181

>  <DrugBank ID of Ligand>  (1) 


>  <IUPHAR_GRAC ID of Ligand>  (1) 


>  <KEGG ID of Ligand>  (1) 
C06374

>  <ZINC ID of Ligand>  (1) 
ZINC03787923

>  <Number of Protein Chains in Target (bigger than 1 implies a multichain complex)>  (1) 
1

>  <BindingDB Target Chain Sequence>  (1) 
MMLNSSTEDGIKRIQDDCPKAGRHNYIFVMIPTLYSIIFVVGIFGNSLAVIVIYFYMKLKTVASVFLLNLALADLCFLLTLPLWAVYTAMEYRWPFGNYLCKIASASVSFNLYASVFLLTCLSIDRYLAIVHPMKSRLRRTMLVAKVTCIIIWLLAGLASLPAIIHRNVFFIENTNITVCAFHYESQNSTLPIGLGLTKNILGFLFPFLIILTSYTLIWKALKKAYEIQKNKPRNDDIFKIIMAIVLFFFFSWVPHQIFTFLDVLIQLGVIHDCRIADIVDTAMPITICIAYFNNCLNPLFYGFLGKKFKKYFLQLLKYIPPKAKSHSNLSTKMSTLSYRPSDNVSSSSKKPVPCFEVE

>  <PDB ID(s) of Target Chain>  (1) 
6DO1,6OS0,6OS1,6OS2

>  <UniProt (SwissProt) Recommended Name of Target Chain>  (1) 
Type-1 angiotensin II receptor

>  <UniProt (SwissProt) Entry Name of Target Chain>  (1) 
AGTR1_RABIT

>  <UniProt (SwissProt) Primary ID of Target Chain>  (1) 
P34976

>  <UniProt (SwissProt) Secondary ID(s) of Target Chain>  (1) 


>  <UniProt (SwissProt) Alternative ID(s) of Target Chain>  (1) 


>  <UniProt (TrEMBL) Submitted Name of Target Chain>  (1) 


>  <UniProt (TrEMBL) Entry Name of Target Chain>  (1) 


>  <UniProt (TrEMBL) Primary ID of Target Chain>  (1) 


>  <UniProt (TrEMBL) Secondary ID(s) of Target Chain>  (1) 


>  <UniProt (TrEMBL) Alternative ID(s) of Target Chain>  (1) 


$$$$
