
     RDKit          2D

 49 53  0  0  0  0  0  0  0  0999 V2000
    3.6600   -3.7978    0.0000 N   0  0  0  0  0  0  0  0  0  0  0  0
    3.7101   -5.1374    0.0000 N   0  0  0  0  0  0  0  0  0  0  0  0
    7.2908   -4.5239    0.0000 S   0  0  0  0  0  0  0  0  0  0  0  0
    4.1734   -4.4488    0.0000 C   0  0  0  0  0  0  0  0  0  0  0  0
    2.8838   -4.0857    0.0000 N   0  0  0  0  0  0  0  0  0  0  0  0
    2.9172   -4.9120    0.0000 C   0  0  0  0  0  0  0  0  0  0  0  0
    6.8777   -3.7978    0.0000 N   0  0  0  0  0  0  0  0  0  0  0  0
    3.8854   -3.0048    0.0000 C   0  0  0  0  0  0  0  0  0  0  0  0
    7.3034   -3.0841    0.0000 C   0  0  0  0  0  0  0  0  0  0  0  0
    7.6915   -5.2501    0.0000 C   0  0  0  0  0  0  0  0  0  0  0  0
    8.1004   -2.8713    0.0000 C   0  0  0  0  0  0  0  0  0  0  0  0
    6.1140   -1.2186    0.0000 C   0  0  0  0  0  0  0  0  0  0  0  0
    7.2783   -5.9512    0.0000 C   0  0  0  0  0  0  0  0  0  0  0  0
    4.6992   -2.8838    0.0000 C   0  0  0  0  0  0  0  0  0  0  0  0
    5.8135   -1.9907    0.0000 N   0  0  0  0  0  0  0  0  0  0  0  0
    3.9981   -5.9136    0.0000 C   0  0  0  0  0  0  0  0  0  0  0  0
    6.5647   -4.9246    0.0000 O   0  0  0  0  0  0  0  0  0  0  0  0
    8.0045   -4.1108    0.0000 O   0  0  0  0  0  0  0  0  0  0  0  0
    4.9997   -4.4196    0.0000 O   0  0  0  0  0  0  0  0  0  0  0  0
    3.3721   -2.3663    0.0000 C   0  0  0  0  0  0  0  0  0  0  0  0
    4.9997   -2.1159    0.0000 C   0  0  0  0  0  0  0  0  0  0  0  0
    6.4603   -5.9387    0.0000 C   0  0  0  0  0  0  0  0  0  0  0  0
    8.3050   -2.0700    0.0000 C   0  0  0  0  0  0  0  0  0  0  0  0
    6.8985   -2.3663    0.0000 O   0  0  0  0  0  0  0  0  0  0  0  0
    6.9361   -1.1018    0.0000 O   0  0  0  0  0  0  0  0  0  0  0  0
    3.6684   -1.5942    0.0000 C   0  0  0  0  0  0  0  0  0  0  0  0
    6.0514   -5.2250    0.0000 C   0  0  0  0  0  0  0  0  0  0  0  0
    6.0388   -6.6481    0.0000 C   0  0  0  0  0  0  0  0  0  0  0  0
    5.6006   -0.5759    0.0000 C   0  0  0  0  0  0  0  0  0  0  0  0
    4.8202   -5.9220    0.0000 C   0  0  0  0  0  0  0  0  0  0  0  0
    4.4864   -1.4690    0.0000 C   0  0  0  0  0  0  0  0  0  0  0  0
    2.5541   -2.4915    0.0000 Cl  0  0  0  0  0  0  0  0  0  0  0  0
    7.7165   -1.4816    0.0000 Cl  0  0  0  0  0  0  0  0  0  0  0  0
    2.2703   -5.4254    0.0000 C   0  0  0  0  0  0  0  0  0  0  0  0
    5.2208   -6.6398    0.0000 C   0  0  0  0  0  0  0  0  0  0  0  0
    5.2334   -5.2208    0.0000 C   0  0  0  0  0  0  0  0  0  0  0  0
    8.6806   -3.4472    0.0000 C   0  0  0  0  0  0  0  0  0  0  0  0
    8.5178   -5.2501    0.0000 C   0  0  0  0  0  0  0  0  0  0  0  0
    7.6790   -6.6732    0.0000 C   0  0  0  0  0  0  0  0  0  0  0  0
    9.0937   -1.8530    0.0000 C   0  0  0  0  0  0  0  0  0  0  0  0
    5.9011    0.1961    0.0000 C   0  0  0  0  0  0  0  0  0  0  0  0
    4.7868   -0.7011    0.0000 C   0  0  0  0  0  0  0  0  0  0  0  0
    1.5024   -5.1124    0.0000 C   0  0  0  0  0  0  0  0  0  0  0  0
    0.8514   -5.6257    0.0000 C   0  0  0  0  0  0  0  0  0  0  0  0
    9.4776   -3.2344    0.0000 C   0  0  0  0  0  0  0  0  0  0  0  0
    8.9267   -5.9762    0.0000 C   0  0  0  0  0  0  0  0  0  0  0  0
    8.5053   -6.6774    0.0000 C   0  0  0  0  0  0  0  0  0  0  0  0
    0.0876   -5.3210    0.0000 C   0  0  0  0  0  0  0  0  0  0  0  0
    9.6822   -2.4331    0.0000 C   0  0  0  0  0  0  0  0  0  0  0  0
  2  4  1  0
  3 10  1  0
  4  1  1  0
  5  1  1  0
  6  5  2  0
  7  3  1  0
  8  1  1  0
  9  7  1  0
 10 13  1  0
 11  9  1  0
 12 15  1  0
 13 22  1  0
 14  8  2  0
 15 21  1  0
 16  2  1  0
 17  3  2  0
 18  3  2  0
 19  4  2  0
 20  8  1  0
 21 14  1  0
 22 27  2  0
 23 11  2  0
 24  9  2  0
 25 12  2  0
 26 20  2  0
 27 36  1  0
 28 35  2  0
 29 12  1  0
 30 16  1  0
 31 26  1  0
 32 20  1  0
 33 23  1  0
 34  6  1  0
 35 30  1  0
 36 30  2  0
 37 11  1  0
 38 10  2  0
 39 13  2  0
 40 23  1  0
 41 29  1  0
 42 29  1  0
 43 34  1  0
 44 43  1  0
 45 37  2  0
 46 47  2  0
 47 39  1  0
 48 44  1  0
 49 45  1  0
  6  2  1  0
 21 31  2  0
 28 22  1  0
 38 46  1  0
 40 49  2  0
M  END
>  <From>  (1) 
www.bindingDB.org

>  <BindingDB Reactant_set_id>  (1) 
50037834

>  <Ligand InChI>  (1) 
InChI=1S/C36H35Cl2N5O5S/c1-4-5-14-33-40-43(31-21-26(19-20-30(31)38)39-34(44)23(2)3)36(46)42(33)22-24-15-17-25(18-16-24)27-10-7-9-13-32(27)49(47,48)41-35(45)28-11-6-8-12-29(28)37/h6-13,15-21,23H,4-5,14,22H2,1-3H3,(H,39,44)(H,41,45)

>  <Ligand InChI Key>  (1) 
XZMVAZYBOILBEK-UHFFFAOYSA-N

>  <BindingDB MonomerID>  (1) 
50035442

>  <BindingDB Ligand Name>  (1) 
CHEMBL337118::N-(3-{3-Butyl-4-[2'-(2-chloro-benzoylsulfamoyl)-biphenyl-4-ylmethyl]-5-oxo-4,5-dihydro-[1,2,4]triazol-1-yl}-4-chloro-phenyl)-isobutyramide

>  <Target Name>  (1) 
Type-1 angiotensin II receptor

>  <Target Source Organism According to Curator or DataSource>  (1) 
Oryctolagus cuniculus

>  <Ki (nM)>  (1) 


>  <IC50 (nM)>  (1) 
 0.180000

>  <Kd (nM)>  (1) 


>  <EC50 (nM)>  (1) 


>  <kon (M-1-s-1)>  (1) 


>  <koff (s-1)>  (1) 


>  <pH>  (1) 


>  <Temp C>  (1) 


>  <Curation/DataSource>  (1) 
ChEMBL

>  <Article DOI>  (1) 
10.1021/jm00052a006

>  <BindingDB Entry DOI>  (1) 
10.7270/Q2WD3ZK5

>  <PMID>  (1) 
7799397

>  <PubChem AID>  (1) 


>  <Patent Number>  (1) 


>  <Authors>  (1) 
Chang, LL; Ashton, WT; Flanagan, KL; Chen, TB; O'Malley, SS; Zingaro, GJ; Siegl, PK; Kivlighn, SD; Lotti, VJ; Chang, RS

>  <Institution>  (1) 
Merck Research Laboratories

>  <Link to Ligand in BindingDB>  (1) 
http://www.bindingdb.org/bind/chemsearch/marvin/MolStructure.jsp?monomerid=50035442

>  <Link to Ligand-Target Pair in BindingDB>  (1) 
http://www.bindingdb.org/jsp/dbsearch/PrimarySearch_ki.jsp?energyterm=kJ/mole&tag=r21&monomerid=50035442&enzyme=Type-1+angiotensin+II+receptor&column=ki&startPg=0&Increment=50&submit=Search

>  <Ligand HET ID in PDB>  (1) 


>  <PDB ID(s) for Ligand-Target Complex>  (1) 


>  <PubChem CID of Ligand>  (1) 
10327537

>  <PubChem SID of Ligand>  (1) 
103943461

>  <ChEBI ID of Ligand>  (1) 


>  <ChEMBL ID of Ligand>  (1) 
CHEMBL337118

>  <DrugBank ID of Ligand>  (1) 


>  <IUPHAR_GRAC ID of Ligand>  (1) 


>  <KEGG ID of Ligand>  (1) 


>  <ZINC ID of Ligand>  (1) 
ZINC27517405

>  <Number of Protein Chains in Target (bigger than 1 implies a multichain complex)>  (1) 
1

>  <BindingDB Target Chain Sequence>  (1) 
MMLNSSTEDGIKRIQDDCPKAGRHNYIFVMIPTLYSIIFVVGIFGNSLAVIVIYFYMKLKTVASVFLLNLALADLCFLLTLPLWAVYTAMEYRWPFGNYLCKIASASVSFNLYASVFLLTCLSIDRYLAIVHPMKSRLRRTMLVAKVTCIIIWLLAGLASLPAIIHRNVFFIENTNITVCAFHYESQNSTLPIGLGLTKNILGFLFPFLIILTSYTLIWKALKKAYEIQKNKPRNDDIFKIIMAIVLFFFFSWVPHQIFTFLDVLIQLGVIHDCRIADIVDTAMPITICIAYFNNCLNPLFYGFLGKKFKKYFLQLLKYIPPKAKSHSNLSTKMSTLSYRPSDNVSSSSKKPVPCFEVE

>  <PDB ID(s) of Target Chain>  (1) 
6DO1,6OS0,6OS1,6OS2

>  <UniProt (SwissProt) Recommended Name of Target Chain>  (1) 
Type-1 angiotensin II receptor

>  <UniProt (SwissProt) Entry Name of Target Chain>  (1) 
AGTR1_RABIT

>  <UniProt (SwissProt) Primary ID of Target Chain>  (1) 
P34976

>  <UniProt (SwissProt) Secondary ID(s) of Target Chain>  (1) 


>  <UniProt (SwissProt) Alternative ID(s) of Target Chain>  (1) 


>  <UniProt (TrEMBL) Submitted Name of Target Chain>  (1) 


>  <UniProt (TrEMBL) Entry Name of Target Chain>  (1) 


>  <UniProt (TrEMBL) Primary ID of Target Chain>  (1) 


>  <UniProt (TrEMBL) Secondary ID(s) of Target Chain>  (1) 


>  <UniProt (TrEMBL) Alternative ID(s) of Target Chain>  (1) 


$$$$
