
     RDKit          2D

 32 35  0  0  0  0  0  0  0  0999 V2000
   -2.2679   -2.9340    0.0000 C   0  0  0  0  0  0  0  0  0  0  0  0
   -1.4469   -2.9685    0.0000 C   0  0  0  0  0  0  0  0  0  0  0  0
   -1.2344   -3.7608    0.0000 N   0  0  0  0  0  0  0  0  0  0  0  0
   -2.5665   -3.6747    0.0000 N   0  0  0  0  0  0  0  0  0  0  0  0
   -1.9292   -4.2087    0.0000 C   0  0  0  0  0  0  0  0  0  0  0  0
    1.8489   -6.8441    0.0000 C   0  0  0  0  0  0  0  0  0  0  0  0
    1.2058   -7.3609    0.0000 C   0  0  0  0  0  0  0  0  0  0  0  0
    0.4134   -7.1484    0.0000 N   0  0  0  0  0  0  0  0  0  0  0  0
    1.8086   -6.0173    0.0000 N   0  0  0  0  0  0  0  0  0  0  0  0
    2.5723   -5.5006    0.0000 N   0  0  0  0  0  0  0  0  0  0  0  0
    3.3302   -6.3618    0.0000 N   0  0  0  0  0  0  0  0  0  0  0  0
    2.6412   -7.0680    0.0000 N   0  0  0  0  0  0  0  0  0  0  0  0
   -2.9110   -2.4001    0.0000 C   0  0  0  0  0  0  0  0  0  0  0  0
   -0.9244   -2.3312    0.0000 C   0  0  0  0  0  0  0  0  0  0  0  0
   -0.4421   -3.9790    0.0000 C   0  0  0  0  0  0  0  0  0  0  0  0
    0.2067   -6.3618    0.0000 C   0  0  0  0  0  0  0  0  0  0  0  0
   -0.0345   -7.8432    0.0000 C   0  0  0  0  0  0  0  0  0  0  0  0
    1.2402   -8.1877    0.0000 C   0  0  0  0  0  0  0  0  0  0  0  0
    0.4881   -8.4805    0.0000 C   0  0  0  0  0  0  0  0  0  0  0  0
   -3.6862   -2.6929    0.0000 O   0  0  0  0  0  0  0  0  0  0  0  0
   -1.2230   -1.5560    0.0000 O   0  0  0  0  0  0  0  0  0  0  0  0
   -0.5857   -6.1379    0.0000 C   0  0  0  0  0  0  0  0  0  0  0  0
    0.7924   -5.7762    0.0000 C   0  0  0  0  0  0  0  0  0  0  0  0
   -2.7732   -1.5847    0.0000 N   0  0  0  0  0  0  0  0  0  0  0  0
   -0.1148   -2.4632    0.0000 N   0  0  0  0  0  0  0  0  0  0  0  0
   -0.2181   -4.7771    0.0000 C   0  0  0  0  0  0  0  0  0  0  0  0
   -1.9751   -5.0355    0.0000 C   0  0  0  0  0  0  0  0  0  0  0  0
   -0.8038   -5.3628    0.0000 C   0  0  0  0  0  0  0  0  0  0  0  0
    0.5742   -4.9953    0.0000 C   0  0  0  0  0  0  0  0  0  0  0  0
   -2.7158   -5.4144    0.0000 C   0  0  0  0  0  0  0  0  0  0  0  0
   -2.7502   -6.2412    0.0000 C   0  0  0  0  0  0  0  0  0  0  0  0
   -3.4795   -6.6202    0.0000 C   0  0  0  0  0  0  0  0  0  0  0  0
  2  1  2  0
  3  2  1  0
  4  1  1  0
  5  4  2  0
  6  7  1  0
  7  8  1  0
  8 16  1  0
  9  6  1  0
 10  9  1  0
 11 12  1  0
 12  6  2  0
 13  1  1  0
 14  2  1  0
 15  3  1  0
 16 23  2  0
 17  8  1  0
 18  7  2  0
 19 17  2  0
 20 13  2  0
 21 14  2  0
 22 28  2  0
 23 29  1  0
 24 13  1  0
 25 14  1  0
 26 15  1  0
 27  5  1  0
 28 26  1  0
 29 26  2  0
 30 27  1  0
 31 30  1  0
 32 31  1  0
  3  5  1  0
 16 22  1  0
 19 18  1  0
 10 11  2  0
M  END
>  <From>  (1) 
www.bindingDB.org

>  <BindingDB Reactant_set_id>  (1) 
50074659

>  <Ligand InChI>  (1) 
InChI=1S/C21H23N9O2/c1-2-3-6-16-24-17(19(22)31)18(20(23)32)30(16)12-13-7-9-14(10-8-13)29-11-4-5-15(29)21-25-27-28-26-21/h4-5,7-11H,2-3,6,12H2,1H3,(H2,22,31)(H2,23,32)(H,25,26,27,28)

>  <Ligand InChI Key>  (1) 
JNTFMOXDOZPNHL-UHFFFAOYSA-N

>  <BindingDB MonomerID>  (1) 
50046077

>  <BindingDB Ligand Name>  (1) 
CHEMBL276381::{2-Butyl-5-chloro-3-[2'-(2H-tetrazol-5-yl)-biphenyl-4-ylmethyl]-3H-imidazol-4-yl}-methanol

>  <Target Name>  (1) 
Type-1 angiotensin II receptor B

>  <Target Source Organism According to Curator or DataSource>  (1) 
Rattus

>  <Ki (nM)>  (1) 


>  <IC50 (nM)>  (1) 
 290

>  <Kd (nM)>  (1) 


>  <EC50 (nM)>  (1) 


>  <kon (M-1-s-1)>  (1) 


>  <koff (s-1)>  (1) 


>  <pH>  (1) 


>  <Temp C>  (1) 


>  <Curation/DataSource>  (1) 
ChEMBL

>  <Article DOI>  (1) 
10.1021/jm00053a013

>  <BindingDB Entry DOI>  (1) 
10.7270/Q2KH0MDW

>  <PMID>  (1) 
8421274

>  <PubChem AID>  (1) 


>  <Patent Number>  (1) 


>  <Authors>  (1) 
Bovy, PR; Reitz, DB; Collins, JT; Chamberlain, TS; Olins, GM; Corpus, VM; McMahon, EG; Palomo, MA; Koepke, JP; Smits, GJ

>  <Institution>  (1) 
Searle & Company

>  <Link to Ligand in BindingDB>  (1) 
http://www.bindingdb.org/bind/chemsearch/marvin/MolStructure.jsp?monomerid=50046077

>  <Link to Ligand-Target Pair in BindingDB>  (1) 
http://www.bindingdb.org/jsp/dbsearch/PrimarySearch_ki.jsp?energyterm=kJ/mole&tag=r21&monomerid=50046077&enzyme=Type-1+angiotensin+II+receptor+B&column=ki&startPg=0&Increment=50&submit=Search

>  <Ligand HET ID in PDB>  (1) 


>  <PDB ID(s) for Ligand-Target Complex>  (1) 


>  <PubChem CID of Ligand>  (1) 
9980304

>  <PubChem SID of Ligand>  (1) 
103976948

>  <ChEBI ID of Ligand>  (1) 


>  <ChEMBL ID of Ligand>  (1) 
CHEMBL276381

>  <DrugBank ID of Ligand>  (1) 


>  <IUPHAR_GRAC ID of Ligand>  (1) 


>  <KEGG ID of Ligand>  (1) 


>  <ZINC ID of Ligand>  (1) 
ZINC13861191

>  <Number of Protein Chains in Target (bigger than 1 implies a multichain complex)>  (1) 
1

>  <BindingDB Target Chain Sequence>  (1) 
MTLNSSTEDGIKRIQDDCPKAGRHNYIFVMIPTLYSIIFVVGIFGNSLVVIVIYFYMKLKTVASVFLLNLALADLCFLLTLPLWAVYTAMEYRWPFGNHLCKIASASVSFNLYASVFLLTCLSIDRYLAIVHPMKSRLRRTMLVAKVTCIIIWLMAGLASLPAVIYRNVYFIENTNITVCAFHYESQNSTLPIGLGLTKNILGFVFPFLIILTSYTLIWKALKKAYKIQKNTPRNDDIFRIIMAIVLFFFFSWVPHQIFTFLDVLIQLGIIRDCEIADIVDTAMPITICIAYFNNCLNPLFYGFLGKKFKKYFLQLLKYIPPTAKSHAGLSTKMSTLSYRPSDNMSSSAKKSASFFEVE

>  <PDB ID(s) of Target Chain>  (1) 


>  <UniProt (SwissProt) Recommended Name of Target Chain>  (1) 
Type-1 angiotensin II receptor B

>  <UniProt (SwissProt) Entry Name of Target Chain>  (1) 
AGTRB_RAT

>  <UniProt (SwissProt) Primary ID of Target Chain>  (1) 
P29089

>  <UniProt (SwissProt) Secondary ID(s) of Target Chain>  (1) 


>  <UniProt (SwissProt) Alternative ID(s) of Target Chain>  (1) 


>  <UniProt (TrEMBL) Submitted Name of Target Chain>  (1) 


>  <UniProt (TrEMBL) Entry Name of Target Chain>  (1) 


>  <UniProt (TrEMBL) Primary ID of Target Chain>  (1) 


>  <UniProt (TrEMBL) Secondary ID(s) of Target Chain>  (1) 


>  <UniProt (TrEMBL) Alternative ID(s) of Target Chain>  (1) 


$$$$
