
     RDKit          2D

 52 55  0  0  0  0  0  0  0  0999 V2000
    2.5141   -5.4690    0.0000 N   0  0  0  0  0  0  0  0  0  0  0  0
    2.8233   -6.7689    0.0000 N   0  0  0  0  0  0  0  0  0  0  0  0
    3.1325   -6.0016    0.0000 C   0  0  0  0  0  0  0  0  0  0  0  0
    6.5170   -5.9672    0.0000 S   0  0  0  0  0  0  0  0  0  0  0  0
    1.8097   -5.8985    0.0000 N   0  0  0  0  0  0  0  0  0  0  0  0
    2.5828   -4.6444    0.0000 C   0  0  0  0  0  0  0  0  0  0  0  0
    1.9987   -6.7060    0.0000 C   0  0  0  0  0  0  0  0  0  0  0  0
    1.8956   -4.1805    0.0000 C   0  0  0  0  0  0  0  0  0  0  0  0
    6.9122   -5.2457    0.0000 N   0  0  0  0  0  0  0  0  0  0  0  0
    1.1568   -4.5413    0.0000 C   0  0  0  0  0  0  0  0  0  0  0  0
    3.2528   -7.4733    0.0000 C   0  0  0  0  0  0  0  0  0  0  0  0
    6.9465   -6.6716    0.0000 C   0  0  0  0  0  0  0  0  0  0  0  0
    7.7368   -5.2285    0.0000 C   0  0  0  0  0  0  0  0  0  0  0  0
    4.0774   -7.4447    0.0000 C   0  0  0  0  0  0  0  0  0  0  0  0
    6.5456   -7.3932    0.0000 C   0  0  0  0  0  0  0  0  0  0  0  0
    5.7267   -7.4104    0.0000 C   0  0  0  0  0  0  0  0  0  0  0  0
    3.3215   -4.3008    0.0000 C   0  0  0  0  0  0  0  0  0  0  0  0
    4.5012   -8.1491    0.0000 C   0  0  0  0  0  0  0  0  0  0  0  0
    5.8298   -5.3488    0.0000 O   0  0  0  0  0  0  0  0  0  0  0  0
    6.0646   -6.6830    0.0000 O   0  0  0  0  0  0  0  0  0  0  0  0
    1.9643   -3.3673    0.0000 C   0  0  0  0  0  0  0  0  0  0  0  0
    5.3258   -8.1319    0.0000 C   0  0  0  0  0  0  0  0  0  0  0  0
    3.9400   -5.8126    0.0000 O   0  0  0  0  0  0  0  0  0  0  0  0
    4.1977   -2.3021    0.0000 C   0  0  0  0  0  0  0  0  0  0  0  0
    4.1290   -3.1268    0.0000 N   0  0  0  0  0  0  0  0  0  0  0  0
    8.1319   -4.5069    0.0000 O   0  0  0  0  0  0  0  0  0  0  0  0
    3.3902   -3.4761    0.0000 C   0  0  0  0  0  0  0  0  0  0  0  0
    8.1663   -5.9329    0.0000 O   0  0  0  0  0  0  0  0  0  0  0  0
    4.4726   -6.7232    0.0000 C   0  0  0  0  0  0  0  0  0  0  0  0
    5.2972   -6.7060    0.0000 C   0  0  0  0  0  0  0  0  0  0  0  0
    3.5219   -1.8269    0.0000 O   0  0  0  0  0  0  0  0  0  0  0  0
    0.3666   -4.1805    0.0000 F   0  0  0  0  0  0  0  0  0  0  0  0
    0.9507   -5.3831    0.0000 F   0  0  0  0  0  0  0  0  0  0  0  0
    0.4696   -4.8677    0.0000 F   0  0  0  0  0  0  0  0  0  0  0  0
    8.9566   -4.4898    0.0000 C   0  0  0  0  0  0  0  0  0  0  0  0
    2.7144   -3.0065    0.0000 C   0  0  0  0  0  0  0  0  0  0  0  0
    4.0774   -8.8649    0.0000 F   0  0  0  0  0  0  0  0  0  0  0  0
    1.4661   -7.3245    0.0000 C   0  0  0  0  0  0  0  0  0  0  0  0
    7.7654   -6.6544    0.0000 C   0  0  0  0  0  0  0  0  0  0  0  0
    6.9751   -8.0976    0.0000 C   0  0  0  0  0  0  0  0  0  0  0  0
    4.9479   -1.9471    0.0000 C   0  0  0  0  0  0  0  0  0  0  0  0
    5.0166   -1.1225    0.0000 O   0  0  0  0  0  0  0  0  0  0  0  0
    9.7812   -4.4898    0.0000 C   0  0  0  0  0  0  0  0  0  0  0  0
    9.3517   -3.7682    0.0000 C   0  0  0  0  0  0  0  0  0  0  0  0
    9.3861   -5.1941    0.0000 C   0  0  0  0  0  0  0  0  0  0  0  0
    5.7611   -0.7731    0.0000 C   0  0  0  0  0  0  0  0  0  0  0  0
    1.7410   -8.1090    0.0000 C   0  0  0  0  0  0  0  0  0  0  0  0
    1.2026   -8.7332    0.0000 C   0  0  0  0  0  0  0  0  0  0  0  0
    7.7883   -8.0918    0.0000 C   0  0  0  0  0  0  0  0  0  0  0  0
    8.1949   -7.3702    0.0000 C   0  0  0  0  0  0  0  0  0  0  0  0
    5.9672    0.0286    0.0000 C   0  0  0  0  0  0  0  0  0  0  0  0
    1.4775   -9.5063    0.0000 C   0  0  0  0  0  0  0  0  0  0  0  0
  2  3  1  0
  3  1  1  0
  4 12  1  0
  5  1  1  0
  6  1  1  0
  7  5  2  0
  8  6  2  0
  9  4  1  0
 10  8  1  0
 11  2  1  0
 12 15  2  0
 13  9  1  0
 14 11  1  0
 15 16  1  0
 16 30  1  0
 17  6  1  0
 18 14  2  0
 19  4  2  0
 20  4  2  0
 21  8  1  0
 22 18  1  0
 23  3  2  0
 24 25  1  0
 25 27  1  0
 26 13  1  0
 27 17  2  0
 28 13  2  0
 29 14  1  0
 30 29  2  0
 31 24  2  0
 32 10  1  0
 33 10  1  0
 34 10  1  0
 35 26  1  0
 36 27  1  0
 37 18  1  0
 38  7  1  0
 39 12  1  0
 40 15  1  0
 41 24  1  0
 42 41  1  0
 43 35  1  0
 44 35  1  0
 45 35  1  0
 46 42  1  0
 47 38  1  0
 48 47  1  0
 49 40  2  0
 50 49  1  0
 51 46  1  0
 52 48  1  0
  7  2  1  0
 36 21  2  0
 22 16  2  0
 39 50  2  0
M  END
>  <From>  (1) 
www.bindingDB.org

>  <BindingDB Reactant_set_id>  (1) 
51183670

>  <Ligand InChI>  (1) 
InChI=1S/C35H39F4N5O7S/c1-6-8-13-30-41-44(28-19-24(40-31(45)21-50-7-2)16-17-26(28)35(37,38)39)33(47)43(30)20-23-15-14-22(18-27(23)36)25-11-9-10-12-29(25)52(48,49)42-32(46)51-34(3,4)5/h9-12,14-19H,6-8,13,20-21H2,1-5H3,(H,40,45)(H,42,46)

>  <Ligand InChI Key>  (1) 
QNOCHXNNNZISSR-UHFFFAOYSA-N

>  <BindingDB MonomerID>  (1) 
50030686

>  <BindingDB Ligand Name>  (1) 
CHEMBL338433::N-{3-[3-Butyl-4-(3-fluoro-2'-(N-t-butyloxycarbonyl)-Sulfanamido-biphenyl-4-ylmethyl)-5-oxo-4,5-dihydro-[1,2,4]triazol-1-yl]-4-trifluoromethyl-phenyl}-2-ethoxy-acetamide

>  <Target Name>  (1) 
Type-1 angiotensin II receptor

>  <Target Source Organism According to Curator or DataSource>  (1) 
Oryctolagus cuniculus

>  <Ki (nM)>  (1) 


>  <IC50 (nM)>  (1) 
 0.260000

>  <Kd (nM)>  (1) 


>  <EC50 (nM)>  (1) 


>  <kon (M-1-s-1)>  (1) 


>  <koff (s-1)>  (1) 


>  <pH>  (1) 


>  <Temp C>  (1) 


>  <Curation/DataSource>  (1) 
ChEMBL

>  <Article DOI>  (1) 
10.1007/s00044-011-9815-x

>  <BindingDB Entry DOI>  (1) 
10.7270/Q2VT1W0S

>  <PMID>  (1) 


>  <PubChem AID>  (1) 


>  <Patent Number>  (1) 


>  <Authors>  (1) 
n/a

>  <Institution>  (1) 
n/a

>  <Link to Ligand in BindingDB>  (1) 
http://www.bindingdb.org/bind/chemsearch/marvin/MolStructure.jsp?monomerid=50030686

>  <Link to Ligand-Target Pair in BindingDB>  (1) 
http://www.bindingdb.org/jsp/dbsearch/PrimarySearch_ki.jsp?energyterm=kJ/mole&tag=r21&monomerid=50030686&enzyme=Type-1+angiotensin+II+receptor&column=ki&startPg=0&Increment=50&submit=Search

>  <Ligand HET ID in PDB>  (1) 


>  <PDB ID(s) for Ligand-Target Complex>  (1) 


>  <PubChem CID of Ligand>  (1) 
10078780

>  <PubChem SID of Ligand>  (1) 
103939534

>  <ChEBI ID of Ligand>  (1) 


>  <ChEMBL ID of Ligand>  (1) 
CHEMBL338433

>  <DrugBank ID of Ligand>  (1) 


>  <IUPHAR_GRAC ID of Ligand>  (1) 


>  <KEGG ID of Ligand>  (1) 


>  <ZINC ID of Ligand>  (1) 
ZINC95611279

>  <Number of Protein Chains in Target (bigger than 1 implies a multichain complex)>  (1) 
1

>  <BindingDB Target Chain Sequence>  (1) 
MMLNSSTEDGIKRIQDDCPKAGRHNYIFVMIPTLYSIIFVVGIFGNSLAVIVIYFYMKLKTVASVFLLNLALADLCFLLTLPLWAVYTAMEYRWPFGNYLCKIASASVSFNLYASVFLLTCLSIDRYLAIVHPMKSRLRRTMLVAKVTCIIIWLLAGLASLPAIIHRNVFFIENTNITVCAFHYESQNSTLPIGLGLTKNILGFLFPFLIILTSYTLIWKALKKAYEIQKNKPRNDDIFKIIMAIVLFFFFSWVPHQIFTFLDVLIQLGVIHDCRIADIVDTAMPITICIAYFNNCLNPLFYGFLGKKFKKYFLQLLKYIPPKAKSHSNLSTKMSTLSYRPSDNVSSSSKKPVPCFEVE

>  <PDB ID(s) of Target Chain>  (1) 
6DO1,6OS0,6OS1,6OS2

>  <UniProt (SwissProt) Recommended Name of Target Chain>  (1) 
Type-1 angiotensin II receptor

>  <UniProt (SwissProt) Entry Name of Target Chain>  (1) 
AGTR1_RABIT

>  <UniProt (SwissProt) Primary ID of Target Chain>  (1) 
P34976

>  <UniProt (SwissProt) Secondary ID(s) of Target Chain>  (1) 


>  <UniProt (SwissProt) Alternative ID(s) of Target Chain>  (1) 


>  <UniProt (TrEMBL) Submitted Name of Target Chain>  (1) 


>  <UniProt (TrEMBL) Entry Name of Target Chain>  (1) 


>  <UniProt (TrEMBL) Primary ID of Target Chain>  (1) 


>  <UniProt (TrEMBL) Secondary ID(s) of Target Chain>  (1) 


>  <UniProt (TrEMBL) Alternative ID(s) of Target Chain>  (1) 


$$$$
