 
     RDKit          2D

 30 33  0  0  0  0  0  0  0  0999 V2000
   22.5330  -15.1955    0.0000 C   0  0  0  0  0  0  0  0  0  0  0  0
   22.5371  -14.3705    0.0000 C   0  0  0  0  0  0  0  0  0  0  0  0
   21.8205  -14.7794    0.0000 C   0  0  0  0  0  0  0  0  0  0  0  0
   24.8606  -13.3830    0.0000 C   0  0  0  0  0  0  0  0  0  0  0  0
   24.8594  -14.2104    0.0000 C   0  0  0  0  0  0  0  0  0  0  0  0
   25.5743  -14.6232    0.0000 C   0  0  0  0  0  0  0  0  0  0  0  0
   26.2907  -14.2099    0.0000 C   0  0  0  0  0  0  0  0  0  0  0  0
   26.2878  -13.3794    0.0000 C   0  0  0  0  0  0  0  0  0  0  0  0
   25.5725  -12.9703    0.0000 C   0  0  0  0  0  0  0  0  0  0  0  0
   27.0023  -14.6205    0.0000 C   0  0  0  0  0  0  0  0  0  0  0  0
   27.0022  -15.4466    0.0000 C   0  0  0  0  0  0  0  0  0  0  0  0
   27.7164  -15.8579    0.0000 C   0  0  0  0  0  0  0  0  0  0  0  0
   28.4313  -15.4443    0.0000 C   0  0  0  0  0  0  0  0  0  0  0  0
   28.4272  -14.6150    0.0000 C   0  0  0  0  0  0  0  0  0  0  0  0
   27.7125  -14.2074    0.0000 C   0  0  0  0  0  0  0  0  0  0  0  0
   27.7083  -13.3837    0.0000 C   0  0  0  0  0  0  0  0  0  0  0  0
   28.3736  -12.8959    0.0000 N   0  0  0  0  0  0  0  0  0  0  0  0
   28.1153  -12.1124    0.0000 N   0  0  0  0  0  0  0  0  0  0  0  0
   27.2903  -12.1161    0.0000 N   0  0  0  0  0  0  0  0  0  0  0  0
   27.0388  -12.9017    0.0000 N   0  0  0  0  0  0  0  0  0  0  0  0
   24.1460  -12.9707    0.0000 C   0  0  0  0  0  0  0  0  0  0  0  0
   23.4293  -13.3774    0.0000 N   0  0  0  0  0  0  0  0  0  0  0  0
   22.6785  -13.0436    0.0000 C   0  0  0  0  0  0  0  0  0  0  0  0
   22.1266  -13.6568    0.0000 N   0  0  0  0  0  0  0  0  0  0  0  0
   23.3461  -14.1994    0.0000 C   0  0  0  0  0  0  0  0  0  0  0  0
   22.5088  -12.2363    0.0000 C   0  0  0  0  0  0  0  0  0  0  0  0
   21.7248  -11.9795    0.0000 C   0  0  0  0  0  0  0  0  0  0  0  0
   21.5552  -11.1721    0.0000 C   0  0  0  0  0  0  0  0  0  0  0  0
   20.7712  -10.9154    0.0000 C   0  0  0  0  0  0  0  0  0  0  0  0
   23.9594  -14.7512    0.0000 O   0  0  0  0  0  0  0  0  0  0  0  0
  2  1  1  0
  3  2  1  0
  4  5  2  0
  5  6  1  0
  6  7  2  0
  7  8  1  0
  8  9  2  0
  9  4  1  0
 10 11  2  0
 11 12  1  0
 12 13  2  0
 13 14  1  0
 14 15  2  0
 15 10  1  0
  7 10  1  0
 16 17  1  0
 17 18  1  0
 18 19  2  0
 19 20  1  0
 20 16  2  0
 15 16  1  0
  4 21  1  0
 21 22  1  0
 22 23  1  0
 23 24  1  0
 24  2  1  0
  2 25  1  0
 25 22  1  0
 23 26  1  0
 26 27  1  0
 27 28  1  0
 28 29  1  0
 25 30  2  0
M  END
>  <From>  (1) 
www.bindingDB.org

>  <BindingDB Reactant_set_id>  (1) 
51428826

>  <Ligand InChI>  (1) 


>  <Ligand InChI Key>  (1) 


>  <BindingDB MonomerID>  (1) 
50577228

>  <BindingDB Ligand Name>  (1) 
CHEMBL4859498

>  <Target Name>  (1) 
Type-1 angiotensin II receptor

>  <Target Source Organism According to Curator or DataSource>  (1) 
Homo sapiens

>  <Ki (nM)>  (1) 


>  <IC50 (nM)>  (1) 
 390

>  <Kd (nM)>  (1) 


>  <EC50 (nM)>  (1) 


>  <kon (M-1-s-1)>  (1) 


>  <koff (s-1)>  (1) 


>  <pH>  (1) 


>  <Temp C>  (1) 


>  <Curation/DataSource>  (1) 
ChEMBL

>  <Article DOI>  (1) 
10.1021/acsmedchemlett.1c00240

>  <BindingDB Entry DOI>  (1) 
10.7270/Q2FJ2MMF

>  <PMID>  (1) 
34413955

>  <PubChem AID>  (1) 


>  <Patent Number>  (1) 


>  <Authors>  (1) 
Hernandez-Olmos, V; Heering, J; Bischoff-Kont, I; Kaps, A; Rajkumar, R; Liu, T; Fürst, R; Steinhilber, D; Proschak, E

>  <Institution>  (1) 
Fraunhofer Institute for Translational Medicine and Phamacology ITMP

>  <Link to Ligand in BindingDB>  (1) 
http://www.bindingdb.org/bind/chemsearch/marvin/MolStructure.jsp?monomerid=50577228

>  <Link to Ligand-Target Pair in BindingDB>  (1) 
http://www.bindingdb.org/jsp/dbsearch/PrimarySearch_ki.jsp?energyterm=kJ/mole&tag=r21&monomerid=50577228&enzyme=Type-1+angiotensin+II+receptor&column=ki&startPg=0&Increment=50&submit=Search

>  <Ligand HET ID in PDB>  (1) 


>  <PDB ID(s) for Ligand-Target Complex>  (1) 


>  <PubChem CID of Ligand>  (1) 
164616479

>  <PubChem SID of Ligand>  (1) 
471053351

>  <ChEBI ID of Ligand>  (1) 


>  <ChEMBL ID of Ligand>  (1) 


>  <DrugBank ID of Ligand>  (1) 


>  <IUPHAR_GRAC ID of Ligand>  (1) 


>  <KEGG ID of Ligand>  (1) 


>  <ZINC ID of Ligand>  (1) 


>  <Number of Protein Chains in Target (bigger than 1 implies a multichain complex)>  (1) 
1

>  <BindingDB Target Chain Sequence>  (1) 
MILNSSTEDGIKRIQDDCPKAGRHNYIFVMIPTLYSIIFVVGIFGNSLVVIVIYFYMKLKTVASVFLLNLALADLCFLLTLPLWAVYTAMEYRWPFGNYLCKIASASVSFNLYASVFLLTCLSIDRYLAIVHPMKSRLRRTMLVAKVTCIIIWLLAGLASLPAIIHRNVFFIENTNITVCAFHYESQNSTLPIGLGLTKNILGFLFPFLIILTSYTLIWKALKKAYEIQKNKPRNDDIFKIIMAIVLFFFFSWIPHQIFTFLDVLIQLGIIRDCRIADIVDTAMPITICIAYFNNCLNPLFYGFLGKKFKRYFLQLLKYIPPKAKSHSNLSTKMSTLSYRPSDNVSSSTKKPAPCFEVE

>  <PDB ID(s) of Target Chain>  (1) 
6DO1,6OS0,6OS1,6OS2

>  <UniProt (SwissProt) Recommended Name of Target Chain>  (1) 
Type-1 angiotensin II receptor

>  <UniProt (SwissProt) Entry Name of Target Chain>  (1) 
AGTR1_HUMAN

>  <UniProt (SwissProt) Primary ID of Target Chain>  (1) 
P30556

>  <UniProt (SwissProt) Secondary ID(s) of Target Chain>  (1) 
Q13725 Q8TBK4

>  <UniProt (SwissProt) Alternative ID(s) of Target Chain>  (1) 


>  <UniProt (TrEMBL) Submitted Name of Target Chain>  (1) 


>  <UniProt (TrEMBL) Entry Name of Target Chain>  (1) 


>  <UniProt (TrEMBL) Primary ID of Target Chain>  (1) 


>  <UniProt (TrEMBL) Secondary ID(s) of Target Chain>  (1) 


>  <UniProt (TrEMBL) Alternative ID(s) of Target Chain>  (1) 


$$$$
