
     RDKit          2D

 38 42  0  0  0  0  0  0  0  0999 V2000
    4.8796   -1.3507    0.0000 N   0  0  0  0  0  0  0  0  0  0  0  0
    5.5407   -0.8621    0.0000 C   0  0  0  0  0  0  0  0  0  0  0  0
    4.4544   -0.0862    0.0000 N   0  0  0  0  0  0  0  0  0  0  0  0
    4.2072   -0.8679    0.0000 C   0  0  0  0  0  0  0  0  0  0  0  0
    5.2820   -0.0748    0.0000 C   0  0  0  0  0  0  0  0  0  0  0  0
    6.3511   -1.0231    0.0000 N   0  0  0  0  0  0  0  0  0  0  0  0
    2.0232   -3.8451    0.0000 O   0  0  0  0  0  0  0  0  0  0  0  0
    2.0232   -4.6727    0.0000 C   0  0  0  0  0  0  0  0  0  0  0  0
    5.8338    0.5345    0.0000 C   0  0  0  0  0  0  0  0  0  0  0  0
    3.4543   -3.8451    0.0000 C   0  0  0  0  0  0  0  0  0  0  0  0
    2.7416   -3.4313    0.0000 C   0  0  0  0  0  0  0  0  0  0  0  0
    2.4887   -5.2130    0.0000 C   0  0  0  0  0  0  0  0  0  0  0  0
    4.8854   -2.1784    0.0000 C   0  0  0  0  0  0  0  0  0  0  0  0
    6.9028   -0.4138    0.0000 C   0  0  0  0  0  0  0  0  0  0  0  0
    6.6384    0.3735    0.0000 C   0  0  0  0  0  0  0  0  0  0  0  0
    4.1727   -3.4313    0.0000 C   0  0  0  0  0  0  0  0  0  0  0  0
    3.4371   -4.3854    0.0000 C   0  0  0  0  0  0  0  0  0  0  0  0
    4.1727   -2.5922    0.0000 C   0  0  0  0  0  0  0  0  0  0  0  0
    3.3968   -5.5062    0.0000 O   0  0  0  0  0  0  0  0  0  0  0  0
    1.2990   -5.0866    0.0000 C   0  0  0  0  0  0  0  0  0  0  0  0
    2.7416   -2.6036    0.0000 C   0  0  0  0  0  0  0  0  0  0  0  0
    2.1439   -5.9890    0.0000 O   0  0  0  0  0  0  0  0  0  0  0  0
    3.4543   -2.1784    0.0000 C   0  0  0  0  0  0  0  0  0  0  0  0
    3.4198   -1.1266    0.0000 C   0  0  0  0  0  0  0  0  0  0  0  0
    4.1268   -4.8165    0.0000 C   0  0  0  0  0  0  0  0  0  0  0  0
    5.5693    1.3219    0.0000 C   0  0  0  0  0  0  0  0  0  0  0  0
    7.7132   -0.5748    0.0000 C   0  0  0  0  0  0  0  0  0  0  0  0
    1.2990   -5.9027    0.0000 C   0  0  0  0  0  0  0  0  0  0  0  0
    0.5920   -4.6613    0.0000 C   0  0  0  0  0  0  0  0  0  0  0  0
    4.0923   -5.6269    0.0000 C   0  0  0  0  0  0  0  0  0  0  0  0
    4.8452   -4.4371    0.0000 C   0  0  0  0  0  0  0  0  0  0  0  0
    2.7991   -0.5862    0.0000 C   0  0  0  0  0  0  0  0  0  0  0  0
    0.5920   -6.3166    0.0000 C   0  0  0  0  0  0  0  0  0  0  0  0
   -0.1321   -5.0751    0.0000 C   0  0  0  0  0  0  0  0  0  0  0  0
    5.5234   -4.8682    0.0000 C   0  0  0  0  0  0  0  0  0  0  0  0
    4.7820   -6.0579    0.0000 C   0  0  0  0  0  0  0  0  0  0  0  0
   -0.1321   -5.9027    0.0000 C   0  0  0  0  0  0  0  0  0  0  0  0
    5.5062   -5.6786    0.0000 C   0  0  0  0  0  0  0  0  0  0  0  0
  2  1  1  0
  3  4  2  0
  4  1  1  0
  5  2  2  0
  6  2  1  0
  7 11  1  0
  8  7  1  0
  9  5  1  0
 10 16  2  0
 11 21  2  0
 12  8  1  0
 13  1  1  0
 14  6  2  0
 15 14  1  0
 16 18  1  0
 17 10  1  0
 18 13  1  0
 19 12  2  0
 20  8  1  0
 21 23  1  0
 22 12  1  0
 23 18  2  0
 24  4  1  0
 25 17  1  0
 26  9  1  0
 27 14  1  0
 28 20  2  0
 29 20  1  0
 30 25  2  0
 31 25  1  0
 32 24  1  0
 33 28  1  0
 34 29  2  0
 35 31  2  0
 36 30  1  0
 37 34  1  0
 38 35  1  0
  5  3  1  0
 15  9  2  0
 11 10  1  0
 36 38  2  0
 33 37  2  0
M  END
>  <From>  (1) 
www.bindingDB.org

>  <BindingDB Reactant_set_id>  (1) 
50003626

>  <Ligand InChI>  (1) 
InChI=1S/C32H31N3O3/c1-4-28-34-29-21(2)17-22(3)33-31(29)35(28)20-24-15-16-27(26(19-24)18-23-11-7-5-8-12-23)38-30(32(36)37)25-13-9-6-10-14-25/h5-17,19,30H,4,18,20H2,1-3H3,(H,36,37)

>  <Ligand InChI Key>  (1) 
HCBMHDFZMXZIFD-UHFFFAOYSA-N

>  <BindingDB MonomerID>  (1) 
50284458

>  <BindingDB Ligand Name>  (1) 
CHEMBL418354::[2-Benzyl-4-(2-ethyl-5,7-dimethyl-imidazo[4,5-b]pyridin-3-ylmethyl)-phenoxy]-phenyl-acetic acid

>  <Target Name>  (1) 
Type-1 angiotensin II receptor

>  <Target Source Organism According to Curator or DataSource>  (1) 
Oryctolagus cuniculus

>  <Ki (nM)>  (1) 


>  <IC50 (nM)>  (1) 
 95

>  <Kd (nM)>  (1) 


>  <EC50 (nM)>  (1) 


>  <kon (M-1-s-1)>  (1) 


>  <koff (s-1)>  (1) 


>  <pH>  (1) 


>  <Temp C>  (1) 


>  <Curation/DataSource>  (1) 
ChEMBL

>  <Article DOI>  (1) 
10.1016/0960-894X(95)00185-V

>  <BindingDB Entry DOI>  (1) 
10.7270/Q2J67GV9

>  <PMID>  (1) 


>  <PubChem AID>  (1) 


>  <Patent Number>  (1) 


>  <Authors>  (1) 
Walsh, TF; Fitch, KJ; Chang, RS; Faust, KA; Chen, TB; Kivlighn, SD; Zingaro, GJ; Lotti, VJ; Siegl, PK; Patchett, AA; Greenlee, WJ

>  <Institution>  (1) 
TBA

>  <Link to Ligand in BindingDB>  (1) 
http://www.bindingdb.org/bind/chemsearch/marvin/MolStructure.jsp?monomerid=50284458

>  <Link to Ligand-Target Pair in BindingDB>  (1) 
http://www.bindingdb.org/jsp/dbsearch/PrimarySearch_ki.jsp?energyterm=kJ/mole&tag=r21&monomerid=50284458&enzyme=Type-1+angiotensin+II+receptor&column=ki&startPg=0&Increment=50&submit=Search

>  <Ligand HET ID in PDB>  (1) 


>  <PDB ID(s) for Ligand-Target Complex>  (1) 


>  <PubChem CID of Ligand>  (1) 
44270367

>  <PubChem SID of Ligand>  (1) 
104126115

>  <ChEBI ID of Ligand>  (1) 


>  <ChEMBL ID of Ligand>  (1) 
CHEMBL418354

>  <DrugBank ID of Ligand>  (1) 


>  <IUPHAR_GRAC ID of Ligand>  (1) 


>  <KEGG ID of Ligand>  (1) 


>  <ZINC ID of Ligand>  (1) 
ZINC36175919

>  <Number of Protein Chains in Target (bigger than 1 implies a multichain complex)>  (1) 
1

>  <BindingDB Target Chain Sequence>  (1) 
MMLNSSTEDGIKRIQDDCPKAGRHNYIFVMIPTLYSIIFVVGIFGNSLAVIVIYFYMKLKTVASVFLLNLALADLCFLLTLPLWAVYTAMEYRWPFGNYLCKIASASVSFNLYASVFLLTCLSIDRYLAIVHPMKSRLRRTMLVAKVTCIIIWLLAGLASLPAIIHRNVFFIENTNITVCAFHYESQNSTLPIGLGLTKNILGFLFPFLIILTSYTLIWKALKKAYEIQKNKPRNDDIFKIIMAIVLFFFFSWVPHQIFTFLDVLIQLGVIHDCRIADIVDTAMPITICIAYFNNCLNPLFYGFLGKKFKKYFLQLLKYIPPKAKSHSNLSTKMSTLSYRPSDNVSSSSKKPVPCFEVE

>  <PDB ID(s) of Target Chain>  (1) 
6DO1,6OS0,6OS1,6OS2

>  <UniProt (SwissProt) Recommended Name of Target Chain>  (1) 
Type-1 angiotensin II receptor

>  <UniProt (SwissProt) Entry Name of Target Chain>  (1) 
AGTR1_RABIT

>  <UniProt (SwissProt) Primary ID of Target Chain>  (1) 
P34976

>  <UniProt (SwissProt) Secondary ID(s) of Target Chain>  (1) 


>  <UniProt (SwissProt) Alternative ID(s) of Target Chain>  (1) 


>  <UniProt (TrEMBL) Submitted Name of Target Chain>  (1) 


>  <UniProt (TrEMBL) Entry Name of Target Chain>  (1) 


>  <UniProt (TrEMBL) Primary ID of Target Chain>  (1) 


>  <UniProt (TrEMBL) Secondary ID(s) of Target Chain>  (1) 


>  <UniProt (TrEMBL) Alternative ID(s) of Target Chain>  (1) 


$$$$
