
     RDKit          2D

 33 37  0  0  0  0  0  0  0  0999 V2000
   -2.5943  -20.3014    0.0000 N   0  0  0  0  0  0  0  0  0  0  0  0
   -1.7016  -19.3073    0.0000 C   0  0  0  0  0  0  0  0  0  0  0  0
   -2.5069  -19.4822    0.0000 N   0  0  0  0  0  0  0  0  0  0  0  0
   -1.2874  -20.0237    0.0000 C   0  0  0  0  0  0  0  0  0  0  0  0
   -1.8433  -20.6396    0.0000 C   0  0  0  0  0  0  0  0  0  0  0  0
   -1.5894  -21.4246    0.0000 N   0  0  0  0  0  0  0  0  0  0  0  0
   -0.7792  -21.6003    0.0000 C   0  0  0  0  0  0  0  0  0  0  0  0
   -0.2232  -20.9844    0.0000 C   0  0  0  0  0  0  0  0  0  0  0  0
   -0.4775  -20.1929    0.0000 C   0  0  0  0  0  0  0  0  0  0  0  0
   -3.3100  -20.7118    0.0000 C   0  0  0  0  0  0  0  0  0  0  0  0
   -3.3124  -21.5368    0.0000 C   0  0  0  0  0  0  0  0  0  0  0  0
   -4.0267  -21.9441    0.0000 C   0  0  0  0  0  0  0  0  0  0  0  0
   -4.0294  -22.7683    0.0000 C   0  0  0  0  0  0  0  0  0  0  0  0
   -3.3156  -23.1837    0.0000 C   0  0  0  0  0  0  0  0  0  0  0  0
   -2.5976  -22.7689    0.0000 C   0  0  0  0  0  0  0  0  0  0  0  0
   -2.5983  -21.9460    0.0000 C   0  0  0  0  0  0  0  0  0  0  0  0
   -3.3167  -24.0042    0.0000 C   0  0  0  0  0  0  0  0  0  0  0  0
   -4.0335  -24.4149    0.0000 C   0  0  0  0  0  0  0  0  0  0  0  0
   -4.0352  -25.2391    0.0000 C   0  0  0  0  0  0  0  0  0  0  0  0
   -3.3208  -25.6536    0.0000 C   0  0  0  0  0  0  0  0  0  0  0  0
   -2.6033  -25.2378    0.0000 C   0  0  0  0  0  0  0  0  0  0  0  0
   -2.6052  -24.4149    0.0000 C   0  0  0  0  0  0  0  0  0  0  0  0
   -1.8912  -24.0016    0.0000 C   0  0  0  0  0  0  0  0  0  0  0  0
   -1.1395  -24.3345    0.0000 N   0  0  0  0  0  0  0  0  0  0  0  0
   -0.5882  -23.7207    0.0000 N   0  0  0  0  0  0  0  0  0  0  0  0
   -1.0015  -23.0067    0.0000 N   0  0  0  0  0  0  0  0  0  0  0  0
   -1.8082  -23.1792    0.0000 N   0  0  0  0  0  0  0  0  0  0  0  0
   -3.1208  -18.9311    0.0000 C   0  0  0  0  0  0  0  0  0  0  0  0
   -2.9504  -18.1239    0.0000 C   0  0  0  0  0  0  0  0  0  0  0  0
   -1.3679  -18.5528    0.0000 O   0  0  0  0  0  0  0  0  0  0  0  0
   -3.5643  -17.5727    0.0000 C   0  0  0  0  0  0  0  0  0  0  0  0
   -3.3940  -16.7655    0.0000 C   0  0  0  0  0  0  0  0  0  0  0  0
   -4.0079  -16.2144    0.0000 C   0  0  0  0  0  0  0  0  0  0  0  0
 15 16  2  0
 16 11  1  0
  5  6  1  0
  6  7  2  0
 17 18  2  0
  7  8  1  0
 18 19  1  0
  8  9  2  0
 19 20  2  0
  1  5  1  0
 20 21  1  0
  1 10  1  0
 21 22  2  0
 22 17  1  0
 14 17  1  0
 22 23  1  0
 23 24  1  0
 10 11  1  0
  4  2  1  0
 11 12  2  0
  2  3  1  0
 24 25  1  0
 25 26  2  0
 26 27  1  0
 27 23  2  0
 12 13  1  0
  3 28  1  0
  3  1  1  0
 28 29  1  0
 13 14  2  0
  2 30  2  0
  4  5  2  0
 29 31  1  0
 14 15  1  0
 31 32  1  0
  4  9  1  0
 32 33  1  0
M  END
>  <From>  (1) 
www.bindingDB.org

>  <BindingDB Reactant_set_id>  (1) 
50867936

>  <Ligand InChI>  (1) 
InChI=1S/C25H25N7O/c1-2-3-6-16-31-25(33)22-10-7-15-26-24(22)32(31)17-18-11-13-19(14-12-18)20-8-4-5-9-21(20)23-27-29-30-28-23/h4-5,7-15H,2-3,6,16-17H2,1H3,(H,27,28,29,30)

>  <Ligand InChI Key>  (1) 
LGLZPVSJGCVURZ-UHFFFAOYSA-N

>  <BindingDB MonomerID>  (1) 
50376926

>  <BindingDB Ligand Name>  (1) 
CHEMBL258685

>  <Target Name>  (1) 
Type-1 angiotensin II receptor A

>  <Target Source Organism According to Curator or DataSource>  (1) 
Rattus

>  <Ki (nM)>  (1) 


>  <IC50 (nM)>  (1) 
 53

>  <Kd (nM)>  (1) 


>  <EC50 (nM)>  (1) 


>  <kon (M-1-s-1)>  (1) 


>  <koff (s-1)>  (1) 


>  <pH>  (1) 


>  <Temp C>  (1) 


>  <Curation/DataSource>  (1) 
ChEMBL

>  <Article DOI>  (1) 
10.1021/jm7011563

>  <BindingDB Entry DOI>  (1) 
10.7270/Q20P10X0

>  <PMID>  (1) 
18318468

>  <PubChem AID>  (1) 


>  <Patent Number>  (1) 


>  <Authors>  (1) 
Cappelli, A; Nannicini, C; Gallelli, A; Giuliani, G; Valenti, S; Mohr, Gl; Anzini, M; Mennuni, L; Ferrari, F; Caselli, G; Giordani, A; Peris, W; Makovec, F; Giorgi, G; Vomero, S

>  <Institution>  (1) 
Universit&#163; di Siena

>  <Link to Ligand in BindingDB>  (1) 
http://www.bindingdb.org/bind/chemsearch/marvin/MolStructure.jsp?monomerid=50376926

>  <Link to Ligand-Target Pair in BindingDB>  (1) 
http://www.bindingdb.org/jsp/dbsearch/PrimarySearch_ki.jsp?energyterm=kJ/mole&tag=r21&monomerid=50376926&enzyme=Type-1+angiotensin+II+receptor+A&column=ki&startPg=0&Increment=50&submit=Search

>  <Ligand HET ID in PDB>  (1) 


>  <PDB ID(s) for Ligand-Target Complex>  (1) 


>  <PubChem CID of Ligand>  (1) 
24827772

>  <PubChem SID of Ligand>  (1) 
160856009

>  <ChEBI ID of Ligand>  (1) 


>  <ChEMBL ID of Ligand>  (1) 
CHEMBL258685

>  <DrugBank ID of Ligand>  (1) 


>  <IUPHAR_GRAC ID of Ligand>  (1) 


>  <KEGG ID of Ligand>  (1) 


>  <ZINC ID of Ligand>  (1) 
ZINC29051396

>  <Number of Protein Chains in Target (bigger than 1 implies a multichain complex)>  (1) 
1

>  <BindingDB Target Chain Sequence>  (1) 
MALNSSAEDGIKRIQDDCPKAGRHSYIFVMIPTLYSIIFVVGIFGNSLVVIVIYFYMKLKTVASVFLLNLALADLCFLLTLPLWAVYTAMEYRWPFGNHLCKIASASVSFNLYASVFLLTCLSIDRYLAIVHPMKSRLRRTMLVAKVTCIIIWLMAGLASLPAVIHRNVYFIENTNITVCAFHYESRNSTLPIGLGLTKNILGFLFPFLIILTSYTLIWKALKKAYEIQKNKPRNDDIFRIIMAIVLFFFFSWVPHQIFTFLDVLIQLGVIHDCKISDIVDTAMPITICIAYFNNCLNPLFYGFLGKKFKKYFLQLLKYIPPKAKSHSSLSTKMSTLSYRPSDNMSSSAKKPASCFEVE

>  <PDB ID(s) of Target Chain>  (1) 


>  <UniProt (SwissProt) Recommended Name of Target Chain>  (1) 
Type-1 angiotensin II receptor A

>  <UniProt (SwissProt) Entry Name of Target Chain>  (1) 
AGTRA_RAT

>  <UniProt (SwissProt) Primary ID of Target Chain>  (1) 
P25095

>  <UniProt (SwissProt) Secondary ID(s) of Target Chain>  (1) 
Q9QVS5

>  <UniProt (SwissProt) Alternative ID(s) of Target Chain>  (1) 


>  <UniProt (TrEMBL) Submitted Name of Target Chain>  (1) 


>  <UniProt (TrEMBL) Entry Name of Target Chain>  (1) 


>  <UniProt (TrEMBL) Primary ID of Target Chain>  (1) 


>  <UniProt (TrEMBL) Secondary ID(s) of Target Chain>  (1) 


>  <UniProt (TrEMBL) Alternative ID(s) of Target Chain>  (1) 


$$$$
