
     RDKit          2D

 37 41  0  0  0  0  0  0  0  0999 V2000
    5.5642   -3.8574    0.0000 N   0  0  0  0  0  0  0  0  0  0  0  0
    6.2298   -4.3410    0.0000 C   0  0  0  0  0  0  0  0  0  0  0  0
    5.9795   -5.1261    0.0000 C   0  0  0  0  0  0  0  0  0  0  0  0
    4.8872   -4.3410    0.0000 N   0  0  0  0  0  0  0  0  0  0  0  0
    5.1545   -5.1261    0.0000 C   0  0  0  0  0  0  0  0  0  0  0  0
    9.8653   -4.2841    0.0000 C   0  0  0  0  0  0  0  0  0  0  0  0
    9.4614   -3.0097    0.0000 N   0  0  0  0  0  0  0  0  0  0  0  0
    9.1997   -3.7948    0.0000 N   0  0  0  0  0  0  0  0  0  0  0  0
   10.2807   -3.0210    0.0000 N   0  0  0  0  0  0  0  0  0  0  0  0
    5.7577   -3.0609    0.0000 C   0  0  0  0  0  0  0  0  0  0  0  0
   10.5310   -3.8062    0.0000 N   0  0  0  0  0  0  0  0  0  0  0  0
    7.0150   -4.0850    0.0000 C   0  0  0  0  0  0  0  0  0  0  0  0
   10.1441   -5.0692    0.0000 C   0  0  0  0  0  0  0  0  0  0  0  0
    9.7458   -5.7861    0.0000 C   0  0  0  0  0  0  0  0  0  0  0  0
    6.4574   -5.7918    0.0000 C   0  0  0  0  0  0  0  0  0  0  0  0
    8.9152   -5.7918    0.0000 C   0  0  0  0  0  0  0  0  0  0  0  0
    5.1773   -2.4919    0.0000 C   0  0  0  0  0  0  0  0  0  0  0  0
    7.6294   -4.6482    0.0000 O   0  0  0  0  0  0  0  0  0  0  0  0
    8.5056   -5.0749    0.0000 C   0  0  0  0  0  0  0  0  0  0  0  0
    8.5169   -6.5029    0.0000 C   0  0  0  0  0  0  0  0  0  0  0  0
    7.2767   -5.7918    0.0000 C   0  0  0  0  0  0  0  0  0  0  0  0
    7.1914   -3.2828    0.0000 O   0  0  0  0  0  0  0  0  0  0  0  0
    4.3694   -2.6967    0.0000 Cl  0  0  0  0  0  0  0  0  0  0  0  0
    7.6863   -5.0863    0.0000 C   0  0  0  0  0  0  0  0  0  0  0  0
    7.6863   -6.5087    0.0000 C   0  0  0  0  0  0  0  0  0  0  0  0
    4.6653   -5.7918    0.0000 C   0  0  0  0  0  0  0  0  0  0  0  0
    6.5428   -2.8333    0.0000 C   0  0  0  0  0  0  0  0  0  0  0  0
   10.9747   -5.0579    0.0000 C   0  0  0  0  0  0  0  0  0  0  0  0
   10.1612   -6.5029    0.0000 C   0  0  0  0  0  0  0  0  0  0  0  0
    5.3651   -1.6955    0.0000 C   0  0  0  0  0  0  0  0  0  0  0  0
    3.8290   -5.7918    0.0000 C   0  0  0  0  0  0  0  0  0  0  0  0
    3.4193   -6.4916    0.0000 C   0  0  0  0  0  0  0  0  0  0  0  0
    6.7476   -2.0368    0.0000 C   0  0  0  0  0  0  0  0  0  0  0  0
   11.3901   -5.7747    0.0000 C   0  0  0  0  0  0  0  0  0  0  0  0
   10.9805   -6.4916    0.0000 C   0  0  0  0  0  0  0  0  0  0  0  0
    2.5943   -6.4916    0.0000 C   0  0  0  0  0  0  0  0  0  0  0  0
    6.1616   -1.4679    0.0000 C   0  0  0  0  0  0  0  0  0  0  0  0
  2  1  1  0
  3  2  2  0
  4  1  1  0
  5  4  2  0
  6 13  1  0
  7  8  1  0
  8  6  1  0
  9 11  1  0
 10  1  1  0
 11  6  2  0
 12  2  1  0
 13 14  1  0
 14 16  1  0
 15  3  1  0
 16 20  2  0
 17 10  2  0
 18 12  2  0
 19 24  2  0
 20 25  1  0
 21 15  1  0
 22 12  1  0
 23 17  1  0
 24 21  1  0
 25 21  2  0
 26  5  1  0
 27 10  1  0
 28 13  2  0
 29 14  2  0
 30 17  1  0
 31 26  1  0
 32 31  1  0
 33 27  2  0
 34 35  2  0
 35 29  1  0
 36 32  1  0
 37 33  1  0
  3  5  1  0
 30 37  2  0
 16 19  1  0
 34 28  1  0
  7  9  2  0
M  END
>  <From>  (1) 
www.bindingDB.org

>  <BindingDB Reactant_set_id>  (1) 
50061764

>  <Ligand InChI>  (1) 
InChI=1S/C28H25ClN6O2/c1-2-3-11-24-22(26(28(36)37)35(32-24)25-12-7-6-10-23(25)29)17-18-13-15-19(16-14-18)20-8-4-5-9-21(20)27-30-33-34-31-27/h4-10,12-16H,2-3,11,17H2,1H3,(H,36,37)(H,30,31,33,34)

>  <Ligand InChI Key>  (1) 
APUHMFHZEQXENQ-UHFFFAOYSA-N

>  <BindingDB MonomerID>  (1) 
50042559

>  <BindingDB Ligand Name>  (1) 
5-Butyl-2-(2-chloro-phenyl)-4-[2'-(1H-tetrazol-5-yl)-biphenyl-4-ylmethyl]-2H-pyrazole-3-carboxylic acid::CHEMBL93226

>  <Target Name>  (1) 
Type-1 angiotensin II receptor

>  <Target Source Organism According to Curator or DataSource>  (1) 
Oryctolagus cuniculus

>  <Ki (nM)>  (1) 


>  <IC50 (nM)>  (1) 
 0.350000

>  <Kd (nM)>  (1) 


>  <EC50 (nM)>  (1) 


>  <kon (M-1-s-1)>  (1) 


>  <koff (s-1)>  (1) 


>  <pH>  (1) 


>  <Temp C>  (1) 


>  <Curation/DataSource>  (1) 
ChEMBL

>  <Article DOI>  (1) 
10.1021/jm00075a014

>  <BindingDB Entry DOI>  (1) 
10.7270/Q25Q4V5H

>  <PMID>  (1) 
8246227

>  <PubChem AID>  (1) 


>  <Patent Number>  (1) 


>  <Authors>  (1) 
Ashton, WT; Hutchins, SM; Greenlee, WJ; Doss, GA; Chang, RS; Lotti, VJ; Faust, KA; Chen, TB; Zingaro, GJ; Kivlighn, SD

>  <Institution>  (1) 
Merck Research Laboratories

>  <Link to Ligand in BindingDB>  (1) 
http://www.bindingdb.org/bind/chemsearch/marvin/MolStructure.jsp?monomerid=50042559

>  <Link to Ligand-Target Pair in BindingDB>  (1) 
http://www.bindingdb.org/jsp/dbsearch/PrimarySearch_ki.jsp?energyterm=kJ/mole&tag=r21&monomerid=50042559&enzyme=Type-1+angiotensin+II+receptor&column=ki&startPg=0&Increment=50&submit=Search

>  <Ligand HET ID in PDB>  (1) 


>  <PDB ID(s) for Ligand-Target Complex>  (1) 


>  <PubChem CID of Ligand>  (1) 
14971698

>  <PubChem SID of Ligand>  (1) 
103974155

>  <ChEBI ID of Ligand>  (1) 


>  <ChEMBL ID of Ligand>  (1) 
CHEMBL93226

>  <DrugBank ID of Ligand>  (1) 


>  <IUPHAR_GRAC ID of Ligand>  (1) 


>  <KEGG ID of Ligand>  (1) 


>  <ZINC ID of Ligand>  (1) 
ZINC01554901

>  <Number of Protein Chains in Target (bigger than 1 implies a multichain complex)>  (1) 
1

>  <BindingDB Target Chain Sequence>  (1) 
MMLNSSTEDGIKRIQDDCPKAGRHNYIFVMIPTLYSIIFVVGIFGNSLAVIVIYFYMKLKTVASVFLLNLALADLCFLLTLPLWAVYTAMEYRWPFGNYLCKIASASVSFNLYASVFLLTCLSIDRYLAIVHPMKSRLRRTMLVAKVTCIIIWLLAGLASLPAIIHRNVFFIENTNITVCAFHYESQNSTLPIGLGLTKNILGFLFPFLIILTSYTLIWKALKKAYEIQKNKPRNDDIFKIIMAIVLFFFFSWVPHQIFTFLDVLIQLGVIHDCRIADIVDTAMPITICIAYFNNCLNPLFYGFLGKKFKKYFLQLLKYIPPKAKSHSNLSTKMSTLSYRPSDNVSSSSKKPVPCFEVE

>  <PDB ID(s) of Target Chain>  (1) 
6DO1,6OS0,6OS1,6OS2

>  <UniProt (SwissProt) Recommended Name of Target Chain>  (1) 
Type-1 angiotensin II receptor

>  <UniProt (SwissProt) Entry Name of Target Chain>  (1) 
AGTR1_RABIT

>  <UniProt (SwissProt) Primary ID of Target Chain>  (1) 
P34976

>  <UniProt (SwissProt) Secondary ID(s) of Target Chain>  (1) 


>  <UniProt (SwissProt) Alternative ID(s) of Target Chain>  (1) 


>  <UniProt (TrEMBL) Submitted Name of Target Chain>  (1) 


>  <UniProt (TrEMBL) Entry Name of Target Chain>  (1) 


>  <UniProt (TrEMBL) Primary ID of Target Chain>  (1) 


>  <UniProt (TrEMBL) Secondary ID(s) of Target Chain>  (1) 


>  <UniProt (TrEMBL) Alternative ID(s) of Target Chain>  (1) 


$$$$
