
     RDKit          2D

 25 27  0  0  0  0  0  0  0  0999 V2000
    4.6780   -7.5590    0.0000 O   0  0  0  0  0  0  0  0  0  0  0  0
    5.2200   -6.9461    0.0000 C   0  0  0  0  0  0  0  0  0  0  0  0
    4.9407   -8.3470    0.0000 C   0  0  0  0  0  0  0  0  0  0  0  0
    4.9657   -6.1664    0.0000 C   0  0  0  0  0  0  0  0  0  0  0  0
    5.7454   -8.5096    0.0000 C   0  0  0  0  0  0  0  0  0  0  0  0
    4.3903   -8.9599    0.0000 C   0  0  0  0  0  0  0  0  0  0  0  0
    5.5160   -5.5452    0.0000 C   0  0  0  0  0  0  0  0  0  0  0  0
    6.2957   -7.8967    0.0000 O   0  0  0  0  0  0  0  0  0  0  0  0
    6.0331   -7.1087    0.0000 C   0  0  0  0  0  0  0  0  0  0  0  0
    4.1569   -5.9955    0.0000 C   0  0  0  0  0  0  0  0  0  0  0  0
    4.6572   -9.7479    0.0000 C   0  0  0  0  0  0  0  0  0  0  0  0
    3.5815   -8.7973    0.0000 C   0  0  0  0  0  0  0  0  0  0  0  0
    6.3207   -5.7162    0.0000 C   0  0  0  0  0  0  0  0  0  0  0  0
    6.0080   -9.2976    0.0000 O   0  0  0  0  0  0  0  0  0  0  0  0
    3.2938  -10.1982    0.0000 C   0  0  0  0  0  0  0  0  0  0  0  0
    6.5834   -6.4959    0.0000 C   0  0  0  0  0  0  0  0  0  0  0  0
    3.0394   -9.4102    0.0000 C   0  0  0  0  0  0  0  0  0  0  0  0
    4.1026  -10.3608    0.0000 C   0  0  0  0  0  0  0  0  0  0  0  0
    6.8669   -5.1033    0.0000 Cl  0  0  0  0  0  0  0  0  0  0  0  0
    2.7435  -10.8111    0.0000 Cl  0  0  0  0  0  0  0  0  0  0  0  0
    3.4939   -6.0956    0.0000 C   0  0  0  0  0  0  0  0  0  0  0  0
    3.4522   -5.5535    0.0000 C   0  0  0  0  0  0  0  0  0  0  0  0
    2.8393   -6.2582    0.0000 C   0  0  0  0  0  0  0  0  0  0  0  0
    2.8393   -6.8211    0.0000 C   0  0  0  0  0  0  0  0  0  0  0  0
    2.1306   -6.3833    0.0000 C   0  0  0  0  0  0  0  0  0  0  0  0
  2  1  1  0
  3  1  1  0
  4  2  1  0
  5  3  1  0
  6  3  1  0
  7  4  2  0
  8  5  2  0
  9  2  2  0
 10  4  1  0
 11  6  2  0
 12  6  1  0
 13 16  2  0
 14  5  1  0
 15 17  1  0
 16  9  1  0
 17 12  2  0
 18 11  1  0
 19 13  1  0
 20 15  1  0
 21 10  1  0
 22 10  1  0
 23 22  1  0
 24 21  1  0
 25 23  1  0
 18 15  2  0
 13  7  1  0
 24 25  1  0
M  END
>  <From>  (1) 
www.bindingDB.org

>  <BindingDB Reactant_set_id>  (1) 
50004226

>  <Ligand InChI>  (1) 
InChI=1S/C20H20Cl2O3/c21-15-8-6-14(7-9-15)19(20(23)24)25-18-11-10-16(22)12-17(18)13-4-2-1-3-5-13/h6-13,19H,1-5H2,(H,23,24)

>  <Ligand InChI Key>  (1) 
QOZCPGWRHWUFPG-UHFFFAOYSA-N

>  <BindingDB MonomerID>  (1) 
50285345

>  <BindingDB Ligand Name>  (1) 
(4-Chloro-2-cyclohexyl-phenoxy)-(4-chloro-phenyl)-acetic acid::CHEMBL41416

>  <Target Name>  (1) 
Type-1 angiotensin II receptor

>  <Target Source Organism According to Curator or DataSource>  (1) 
Oryctolagus cuniculus

>  <Ki (nM)>  (1) 


>  <IC50 (nM)>  (1) 
 21

>  <Kd (nM)>  (1) 


>  <EC50 (nM)>  (1) 


>  <kon (M-1-s-1)>  (1) 


>  <koff (s-1)>  (1) 


>  <pH>  (1) 


>  <Temp C>  (1) 


>  <Curation/DataSource>  (1) 
ChEMBL

>  <Article DOI>  (1) 
10.1016/0960-894X(94)00476-V

>  <BindingDB Entry DOI>  (1) 
10.7270/Q26H4HC9

>  <PMID>  (1) 


>  <PubChem AID>  (1) 


>  <Patent Number>  (1) 


>  <Authors>  (1) 
Fitch, KJ; Walsh, TF; Patchett, AA; Chang, RS; Siegl, PK; Faust, KA; Chen, TB; Lotti, VJ; Kivlighn, SD; Zingaro, GJ; Greenlee, WJ

>  <Institution>  (1) 
TBA

>  <Link to Ligand in BindingDB>  (1) 
http://www.bindingdb.org/bind/chemsearch/marvin/MolStructure.jsp?monomerid=50285345

>  <Link to Ligand-Target Pair in BindingDB>  (1) 
http://www.bindingdb.org/jsp/dbsearch/PrimarySearch_ki.jsp?energyterm=kJ/mole&tag=r21&monomerid=50285345&enzyme=Type-1+angiotensin+II+receptor&column=ki&startPg=0&Increment=50&submit=Search

>  <Ligand HET ID in PDB>  (1) 


>  <PDB ID(s) for Ligand-Target Complex>  (1) 


>  <PubChem CID of Ligand>  (1) 
44286911

>  <PubChem SID of Ligand>  (1) 
104126916

>  <ChEBI ID of Ligand>  (1) 


>  <ChEMBL ID of Ligand>  (1) 
CHEMBL41416

>  <DrugBank ID of Ligand>  (1) 


>  <IUPHAR_GRAC ID of Ligand>  (1) 


>  <KEGG ID of Ligand>  (1) 


>  <ZINC ID of Ligand>  (1) 
ZINC29340165

>  <Number of Protein Chains in Target (bigger than 1 implies a multichain complex)>  (1) 
1

>  <BindingDB Target Chain Sequence>  (1) 
MMLNSSTEDGIKRIQDDCPKAGRHNYIFVMIPTLYSIIFVVGIFGNSLAVIVIYFYMKLKTVASVFLLNLALADLCFLLTLPLWAVYTAMEYRWPFGNYLCKIASASVSFNLYASVFLLTCLSIDRYLAIVHPMKSRLRRTMLVAKVTCIIIWLLAGLASLPAIIHRNVFFIENTNITVCAFHYESQNSTLPIGLGLTKNILGFLFPFLIILTSYTLIWKALKKAYEIQKNKPRNDDIFKIIMAIVLFFFFSWVPHQIFTFLDVLIQLGVIHDCRIADIVDTAMPITICIAYFNNCLNPLFYGFLGKKFKKYFLQLLKYIPPKAKSHSNLSTKMSTLSYRPSDNVSSSSKKPVPCFEVE

>  <PDB ID(s) of Target Chain>  (1) 
6DO1,6OS0,6OS1,6OS2

>  <UniProt (SwissProt) Recommended Name of Target Chain>  (1) 
Type-1 angiotensin II receptor

>  <UniProt (SwissProt) Entry Name of Target Chain>  (1) 
AGTR1_RABIT

>  <UniProt (SwissProt) Primary ID of Target Chain>  (1) 
P34976

>  <UniProt (SwissProt) Secondary ID(s) of Target Chain>  (1) 


>  <UniProt (SwissProt) Alternative ID(s) of Target Chain>  (1) 


>  <UniProt (TrEMBL) Submitted Name of Target Chain>  (1) 


>  <UniProt (TrEMBL) Entry Name of Target Chain>  (1) 


>  <UniProt (TrEMBL) Primary ID of Target Chain>  (1) 


>  <UniProt (TrEMBL) Secondary ID(s) of Target Chain>  (1) 


>  <UniProt (TrEMBL) Alternative ID(s) of Target Chain>  (1) 


$$$$
