
     RDKit          2D

 39 43  0  0  0  0  0  0  0  0999 V2000
   19.1977  -10.3658    0.0000 C   0  0  0  0  0  0  0  0  0  0  0  0
   19.8962   -9.9416    0.0000 C   0  0  0  0  0  0  0  0  0  0  0  0
   20.6123  -10.3338    0.0000 C   0  0  0  0  0  0  0  0  0  0  0  0
   20.6298  -11.1502    0.0000 C   0  0  0  0  0  0  0  0  0  0  0  0
   19.9313  -11.5745    0.0000 C   0  0  0  0  0  0  0  0  0  0  0  0
   19.2140  -11.1862    0.0000 C   0  0  0  0  0  0  0  0  0  0  0  0
   18.4765   -9.9764    0.0000 C   0  0  0  0  0  0  0  0  0  0  0  0
   17.7819  -10.4018    0.0000 C   0  0  0  0  0  0  0  0  0  0  0  0
   17.0619  -10.0084    0.0000 C   0  0  0  0  0  0  0  0  0  0  0  0
   17.0443   -9.1920    0.0000 C   0  0  0  0  0  0  0  0  0  0  0  0
   17.7429   -8.7678    0.0000 C   0  0  0  0  0  0  0  0  0  0  0  0
   18.4590   -9.1600    0.0000 C   0  0  0  0  0  0  0  0  0  0  0  0
   19.8748   -9.1240    0.0000 C   0  0  0  0  0  0  0  0  0  0  0  0
   19.1575   -8.7358    0.0000 O   0  0  0  0  0  0  0  0  0  0  0  0
   20.5733   -8.6998    0.0000 O   0  0  0  0  0  0  0  0  0  0  0  0
   16.3283   -8.7998    0.0000 C   0  0  0  0  0  0  0  0  0  0  0  0
   16.7984   -7.3305    0.0000 C   0  0  0  0  0  0  0  0  0  0  0  0
   16.3286   -6.6639    0.0000 N   0  0  0  0  0  0  0  0  0  0  0  0
   15.5476   -6.9022    0.0000 C   0  0  0  0  0  0  0  0  0  0  0  0
   15.5347   -7.7193    0.0000 C   0  0  0  0  0  0  0  0  0  0  0  0
   16.3079   -7.9820    0.0000 N   0  0  0  0  0  0  0  0  0  0  0  0
   14.8491   -6.4826    0.0000 C   0  0  0  0  0  0  0  0  0  0  0  0
   14.1337   -6.8800    0.0000 C   0  0  0  0  0  0  0  0  0  0  0  0
   14.1209   -7.6971    0.0000 C   0  0  0  0  0  0  0  0  0  0  0  0
   14.8235   -8.1168    0.0000 C   0  0  0  0  0  0  0  0  0  0  0  0
   17.6155   -7.3433    0.0000 C   0  0  0  0  0  0  0  0  0  0  0  0
   18.0351   -6.6407    0.0000 C   0  0  0  0  0  0  0  0  0  0  0  0
   18.8522   -6.6536    0.0000 C   0  0  0  0  0  0  0  0  0  0  0  0
   14.8619   -5.6655    0.0000 C   0  0  0  0  0  0  0  0  0  0  0  0
   13.4054   -8.0945    0.0000 N   0  0  0  0  0  0  0  0  0  0  0  0
   12.7029   -7.6748    0.0000 C   0  0  0  0  0  0  0  0  0  0  0  0
   12.7157   -6.8577    0.0000 O   0  0  0  0  0  0  0  0  0  0  0  0
   11.9916   -8.0723    0.0000 C   0  0  0  0  0  0  0  0  0  0  0  0
   11.2890   -7.6526    0.0000 C   0  0  0  0  0  0  0  0  0  0  0  0
   10.5777   -8.0501    0.0000 C   0  0  0  0  0  0  0  0  0  0  0  0
    9.8751   -7.6304    0.0000 C   0  0  0  0  0  0  0  0  0  0  0  0
    9.8879   -6.8133    0.0000 C   0  0  0  0  0  0  0  0  0  0  0  0
   10.6034   -6.4159    0.0000 C   0  0  0  0  0  0  0  0  0  0  0  0
   11.3018   -6.8355    0.0000 C   0  0  0  0  0  0  0  0  0  0  0  0
  1  2  2  0
  2  3  1  0
  3  4  2  0
  4  5  1  0
  5  6  2  0
  1  6  1  0
  7  8  2  0
  8  9  1  0
  9 10  2  0
 10 11  1  0
 11 12  2  0
  7 12  1  0
  1  7  1  0
 13 14  2  0
 13 15  1  0
  2 13  1  0
 17 18  2  0
 18 19  1  0
 19 20  2  0
 20 21  1  0
 17 21  1  0
 22 23  2  0
 23 24  1  0
 24 25  2  0
 20 25  1  0
 19 22  1  0
 26 27  1  0
 27 28  1  0
 17 26  1  0
 22 29  1  0
 31 32  2  0
 31 33  1  0
 30 31  1  0
 34 35  2  0
 35 36  1  0
 36 37  2  0
 37 38  1  0
 38 39  2  0
 34 39  1  0
 33 34  1  0
 24 30  1  0
 16 21  1  0
 10 16  1  0
M  END
>  <From>  (1) 
www.bindingDB.org

>  <BindingDB Reactant_set_id>  (1) 
51199746

>  <Ligand InChI>  (1) 
InChI=1S/C33H31N3O3/c1-3-9-30-35-32-22(2)18-26(34-31(37)19-23-10-5-4-6-11-23)20-29(32)36(30)21-24-14-16-25(17-15-24)27-12-7-8-13-28(27)33(38)39/h4-8,10-18,20H,3,9,19,21H2,1-2H3,(H,34,37)(H,38,39)

>  <Ligand InChI Key>  (1) 
UPPRCSHSYLSOJN-UHFFFAOYSA-N

>  <BindingDB MonomerID>  (1) 
50493589

>  <BindingDB Ligand Name>  (1) 
CHEMBL2435827

>  <Target Name>  (1) 
Type-1 angiotensin II receptor

>  <Target Source Organism According to Curator or DataSource>  (1) 
Homo sapiens

>  <Ki (nM)>  (1) 


>  <IC50 (nM)>  (1) 
 1.2

>  <Kd (nM)>  (1) 


>  <EC50 (nM)>  (1) 


>  <kon (M-1-s-1)>  (1) 


>  <koff (s-1)>  (1) 


>  <pH>  (1) 


>  <Temp C>  (1) 


>  <Curation/DataSource>  (1) 
ChEMBL

>  <Article DOI>  (1) 
10.1016/j.ejmech.2013.08.014

>  <BindingDB Entry DOI>  (1) 
10.7270/Q2PK0K32

>  <PMID>  (1) 
24007859

>  <PubChem AID>  (1) 


>  <Patent Number>  (1) 


>  <Authors>  (1) 
Zhang, J; Wang, JL; Yu, WF; Zhou, ZM; Tao, WC; Wang, YC; Xue, WZ; Xu, D; Hao, LP; Han, XF; Fei, F; Liu, T; Liang, AH

>  <Institution>  (1) 
Beijing Institute of Technology

>  <Link to Ligand in BindingDB>  (1) 
http://www.bindingdb.org/bind/chemsearch/marvin/MolStructure.jsp?monomerid=50493589

>  <Link to Ligand-Target Pair in BindingDB>  (1) 
http://www.bindingdb.org/jsp/dbsearch/PrimarySearch_ki.jsp?energyterm=kJ/mole&tag=r21&monomerid=50493589&enzyme=Type-1+angiotensin+II+receptor&column=ki&startPg=0&Increment=50&submit=Search

>  <Ligand HET ID in PDB>  (1) 


>  <PDB ID(s) for Ligand-Target Complex>  (1) 


>  <PubChem CID of Ligand>  (1) 
73355475

>  <PubChem SID of Ligand>  (1) 
433960854

>  <ChEBI ID of Ligand>  (1) 


>  <ChEMBL ID of Ligand>  (1) 


>  <DrugBank ID of Ligand>  (1) 


>  <IUPHAR_GRAC ID of Ligand>  (1) 


>  <KEGG ID of Ligand>  (1) 


>  <ZINC ID of Ligand>  (1) 


>  <Number of Protein Chains in Target (bigger than 1 implies a multichain complex)>  (1) 
1

>  <BindingDB Target Chain Sequence>  (1) 
MILNSSTEDGIKRIQDDCPKAGRHNYIFVMIPTLYSIIFVVGIFGNSLVVIVIYFYMKLKTVASVFLLNLALADLCFLLTLPLWAVYTAMEYRWPFGNYLCKIASASVSFNLYASVFLLTCLSIDRYLAIVHPMKSRLRRTMLVAKVTCIIIWLLAGLASLPAIIHRNVFFIENTNITVCAFHYESQNSTLPIGLGLTKNILGFLFPFLIILTSYTLIWKALKKAYEIQKNKPRNDDIFKIIMAIVLFFFFSWIPHQIFTFLDVLIQLGIIRDCRIADIVDTAMPITICIAYFNNCLNPLFYGFLGKKFKRYFLQLLKYIPPKAKSHSNLSTKMSTLSYRPSDNVSSSTKKPAPCFEVE

>  <PDB ID(s) of Target Chain>  (1) 
6DO1,6OS0,6OS1,6OS2

>  <UniProt (SwissProt) Recommended Name of Target Chain>  (1) 
Type-1 angiotensin II receptor

>  <UniProt (SwissProt) Entry Name of Target Chain>  (1) 
AGTR1_HUMAN

>  <UniProt (SwissProt) Primary ID of Target Chain>  (1) 
P30556

>  <UniProt (SwissProt) Secondary ID(s) of Target Chain>  (1) 
Q13725 Q8TBK4

>  <UniProt (SwissProt) Alternative ID(s) of Target Chain>  (1) 


>  <UniProt (TrEMBL) Submitted Name of Target Chain>  (1) 


>  <UniProt (TrEMBL) Entry Name of Target Chain>  (1) 


>  <UniProt (TrEMBL) Primary ID of Target Chain>  (1) 


>  <UniProt (TrEMBL) Secondary ID(s) of Target Chain>  (1) 


>  <UniProt (TrEMBL) Alternative ID(s) of Target Chain>  (1) 


$$$$
