
     RDKit          2D

 39 43  0  0  0  0  0  0  0  0999 V2000
    7.0867   -3.1624    0.0000 N   0  0  0  0  0  0  0  0  0  0  0  0
    7.1554   -1.8218    0.0000 N   0  0  0  0  0  0  0  0  0  0  0  0
    7.6137   -2.5150    0.0000 C   0  0  0  0  0  0  0  0  0  0  0  0
    6.3247   -2.8702    0.0000 C   0  0  0  0  0  0  0  0  0  0  0  0
    6.3649   -2.0452    0.0000 C   0  0  0  0  0  0  0  0  0  0  0  0
    3.4717   -2.7327    0.0000 C   0  0  0  0  0  0  0  0  0  0  0  0
   10.6615   -5.2133    0.0000 C   0  0  0  0  0  0  0  0  0  0  0  0
    9.9511   -5.6372    0.0000 C   0  0  0  0  0  0  0  0  0  0  0  0
   10.6557   -4.3998    0.0000 C   0  0  0  0  0  0  0  0  0  0  0  0
    5.5914   -3.2369    0.0000 C   0  0  0  0  0  0  0  0  0  0  0  0
    7.0867   -3.9873    0.0000 C   0  0  0  0  0  0  0  0  0  0  0  0
    4.1650   -3.1795    0.0000 N   0  0  0  0  0  0  0  0  0  0  0  0
    2.7385   -3.1166    0.0000 N   0  0  0  0  0  0  0  0  0  0  0  0
    9.2350   -5.2248    0.0000 C   0  0  0  0  0  0  0  0  0  0  0  0
    4.9040   -2.8014    0.0000 C   0  0  0  0  0  0  0  0  0  0  0  0
    3.5119   -1.9135    0.0000 O   0  0  0  0  0  0  0  0  0  0  0  0
    9.9397   -3.9931    0.0000 O   0  0  0  0  0  0  0  0  0  0  0  0
    5.6716   -1.5984    0.0000 C   0  0  0  0  0  0  0  0  0  0  0  0
    8.5132   -5.6372    0.0000 C   0  0  0  0  0  0  0  0  0  0  0  0
    9.2350   -4.3884    0.0000 C   0  0  0  0  0  0  0  0  0  0  0  0
    7.8085   -4.3998    0.0000 C   0  0  0  0  0  0  0  0  0  0  0  0
   11.3662   -3.9759    0.0000 O   0  0  0  0  0  0  0  0  0  0  0  0
    4.9384   -1.9765    0.0000 C   0  0  0  0  0  0  0  0  0  0  0  0
    8.4273   -2.5494    0.0000 C   0  0  0  0  0  0  0  0  0  0  0  0
    8.5132   -3.9759    0.0000 C   0  0  0  0  0  0  0  0  0  0  0  0
    7.8085   -5.2248    0.0000 C   0  0  0  0  0  0  0  0  0  0  0  0
    2.0452   -2.6697    0.0000 C   0  0  0  0  0  0  0  0  0  0  0  0
   11.3776   -5.6258    0.0000 C   0  0  0  0  0  0  0  0  0  0  0  0
    9.9511   -6.4622    0.0000 C   0  0  0  0  0  0  0  0  0  0  0  0
    2.0854   -1.8448    0.0000 C   0  0  0  0  0  0  0  0  0  0  0  0
    1.3120   -3.0478    0.0000 C   0  0  0  0  0  0  0  0  0  0  0  0
    8.8741   -1.8619    0.0000 C   0  0  0  0  0  0  0  0  0  0  0  0
    9.6991   -1.8963    0.0000 C   0  0  0  0  0  0  0  0  0  0  0  0
   10.6615   -6.8633    0.0000 C   0  0  0  0  0  0  0  0  0  0  0  0
   11.3834   -6.4508    0.0000 C   0  0  0  0  0  0  0  0  0  0  0  0
   10.1459   -1.2088    0.0000 C   0  0  0  0  0  0  0  0  0  0  0  0
    0.6245   -2.6010    0.0000 C   0  0  0  0  0  0  0  0  0  0  0  0
    1.3979   -1.3979    0.0000 C   0  0  0  0  0  0  0  0  0  0  0  0
    0.6589   -1.7760    0.0000 C   0  0  0  0  0  0  0  0  0  0  0  0
  2  3  2  0
  3  1  1  0
  4  1  1  0
  5  4  2  0
  6 12  1  0
  7  8  2  0
  8 14  1  0
  9  7  1  0
 10  4  1  0
 11  1  1  0
 12 15  1  0
 13  6  1  0
 14 19  2  0
 15 10  2  0
 16  6  2  0
 17  9  2  0
 18  5  1  0
 19 26  1  0
 20 25  2  0
 21 11  1  0
 22  9  1  0
 23 15  1  0
 24  3  1  0
 25 21  1  0
 26 21  2  0
 27 13  1  0
 28  7  1  0
 29  8  1  0
 30 27  1  0
 31 27  1  0
 32 24  1  0
 33 32  1  0
 34 29  2  0
 35 34  1  0
 36 33  1  0
 37 31  1  0
 38 30  1  0
 39 37  1  0
  5  2  1  0
 14 20  1  0
 23 18  2  0
 28 35  2  0
 39 38  1  0
M  END
>  <From>  (1) 
www.bindingDB.org

>  <BindingDB Reactant_set_id>  (1) 
50069243

>  <Ligand InChI>  (1) 
InChI=1S/C32H36N4O3/c1-2-3-13-30-35-28-19-18-25(34-32(39)33-24-9-5-4-6-10-24)20-29(28)36(30)21-22-14-16-23(17-15-22)26-11-7-8-12-27(26)31(37)38/h7-8,11-12,14-20,24H,2-6,9-10,13,21H2,1H3,(H,37,38)(H2,33,34,39)

>  <Ligand InChI Key>  (1) 
OLQFKFSAJNUOPT-UHFFFAOYSA-N

>  <BindingDB MonomerID>  (1) 
50035429

>  <BindingDB Ligand Name>  (1) 
4'-[2-Butyl-6-(3-cyclohexyl-ureido)-benzoimidazol-1-ylmethyl]-biphenyl-2-carboxylic acid::CHEMBL130896

>  <Target Name>  (1) 
Type-1 angiotensin II receptor B

>  <Target Source Organism According to Curator or DataSource>  (1) 
Rattus

>  <Ki (nM)>  (1) 


>  <IC50 (nM)>  (1) 
 26

>  <Kd (nM)>  (1) 


>  <EC50 (nM)>  (1) 


>  <kon (M-1-s-1)>  (1) 


>  <koff (s-1)>  (1) 


>  <pH>  (1) 


>  <Temp C>  (1) 


>  <Curation/DataSource>  (1) 
ChEMBL

>  <Article DOI>  (1) 
10.1021/jm00077a007

>  <BindingDB Entry DOI>  (1) 
10.7270/Q2V98746

>  <PMID>  (1) 
8258826

>  <PubChem AID>  (1) 


>  <Patent Number>  (1) 


>  <Authors>  (1) 
Ries, UJ; Mihm, G; Narr, B; Hasselbach, KM; Wittneben, H; Entzeroth, M; van Meel, JC; Wienen, W; Hauel, NH

>  <Institution>  (1) 
Dr. Karl Thomae GmbH

>  <Link to Ligand in BindingDB>  (1) 
http://www.bindingdb.org/bind/chemsearch/marvin/MolStructure.jsp?monomerid=50035429

>  <Link to Ligand-Target Pair in BindingDB>  (1) 
http://www.bindingdb.org/jsp/dbsearch/PrimarySearch_ki.jsp?energyterm=kJ/mole&tag=r21&monomerid=50035429&enzyme=Type-1+angiotensin+II+receptor+B&column=ki&startPg=0&Increment=50&submit=Search

>  <Ligand HET ID in PDB>  (1) 


>  <PDB ID(s) for Ligand-Target Complex>  (1) 


>  <PubChem CID of Ligand>  (1) 
131590

>  <PubChem SID of Ligand>  (1) 
103943448

>  <ChEBI ID of Ligand>  (1) 


>  <ChEMBL ID of Ligand>  (1) 
CHEMBL130896

>  <DrugBank ID of Ligand>  (1) 


>  <IUPHAR_GRAC ID of Ligand>  (1) 


>  <KEGG ID of Ligand>  (1) 


>  <ZINC ID of Ligand>  (1) 
ZINC11687040

>  <Number of Protein Chains in Target (bigger than 1 implies a multichain complex)>  (1) 
1

>  <BindingDB Target Chain Sequence>  (1) 
MTLNSSTEDGIKRIQDDCPKAGRHNYIFVMIPTLYSIIFVVGIFGNSLVVIVIYFYMKLKTVASVFLLNLALADLCFLLTLPLWAVYTAMEYRWPFGNHLCKIASASVSFNLYASVFLLTCLSIDRYLAIVHPMKSRLRRTMLVAKVTCIIIWLMAGLASLPAVIYRNVYFIENTNITVCAFHYESQNSTLPIGLGLTKNILGFVFPFLIILTSYTLIWKALKKAYKIQKNTPRNDDIFRIIMAIVLFFFFSWVPHQIFTFLDVLIQLGIIRDCEIADIVDTAMPITICIAYFNNCLNPLFYGFLGKKFKKYFLQLLKYIPPTAKSHAGLSTKMSTLSYRPSDNMSSSAKKSASFFEVE

>  <PDB ID(s) of Target Chain>  (1) 


>  <UniProt (SwissProt) Recommended Name of Target Chain>  (1) 
Type-1 angiotensin II receptor B

>  <UniProt (SwissProt) Entry Name of Target Chain>  (1) 
AGTRB_RAT

>  <UniProt (SwissProt) Primary ID of Target Chain>  (1) 
P29089

>  <UniProt (SwissProt) Secondary ID(s) of Target Chain>  (1) 


>  <UniProt (SwissProt) Alternative ID(s) of Target Chain>  (1) 


>  <UniProt (TrEMBL) Submitted Name of Target Chain>  (1) 


>  <UniProt (TrEMBL) Entry Name of Target Chain>  (1) 


>  <UniProt (TrEMBL) Primary ID of Target Chain>  (1) 


>  <UniProt (TrEMBL) Secondary ID(s) of Target Chain>  (1) 


>  <UniProt (TrEMBL) Alternative ID(s) of Target Chain>  (1) 


$$$$
