
     RDKit          2D

 34 37  0  0  0  0  0  0  0  0999 V2000
    4.2166   -6.1759    0.0000 N   0  0  0  0  0  0  0  0  0  0  0  0
    4.5088   -7.4822    0.0000 N   0  0  0  0  0  0  0  0  0  0  0  0
    4.8353   -6.7201    0.0000 C   0  0  0  0  0  0  0  0  0  0  0  0
    3.5062   -6.5998    0.0000 N   0  0  0  0  0  0  0  0  0  0  0  0
    3.6838   -7.4076    0.0000 C   0  0  0  0  0  0  0  0  0  0  0  0
    8.2040   -6.7087    0.0000 C   0  0  0  0  0  0  0  0  0  0  0  0
    4.2854   -5.3510    0.0000 C   0  0  0  0  0  0  0  0  0  0  0  0
    7.3790   -6.6400    0.0000 N   0  0  0  0  0  0  0  0  0  0  0  0
    7.1900   -5.8436    0.0000 N   0  0  0  0  0  0  0  0  0  0  0  0
    8.5134   -5.9525    0.0000 N   0  0  0  0  0  0  0  0  0  0  0  0
    7.8946   -5.4139    0.0000 N   0  0  0  0  0  0  0  0  0  0  0  0
    8.6337   -7.4134    0.0000 C   0  0  0  0  0  0  0  0  0  0  0  0
    3.6151   -4.8811    0.0000 C   0  0  0  0  0  0  0  0  0  0  0  0
    8.2384   -8.1353    0.0000 C   0  0  0  0  0  0  0  0  0  0  0  0
    4.9385   -8.1868    0.0000 C   0  0  0  0  0  0  0  0  0  0  0  0
    5.6431   -6.5369    0.0000 O   0  0  0  0  0  0  0  0  0  0  0  0
    7.4134   -8.1525    0.0000 C   0  0  0  0  0  0  0  0  0  0  0  0
    2.8588   -5.2306    0.0000 O   0  0  0  0  0  0  0  0  0  0  0  0
    3.6838   -4.0619    0.0000 N   0  0  0  0  0  0  0  0  0  0  0  0
    7.0181   -8.8743    0.0000 C   0  0  0  0  0  0  0  0  0  0  0  0
    6.9951   -7.4478    0.0000 C   0  0  0  0  0  0  0  0  0  0  0  0
    5.7634   -8.1810    0.0000 C   0  0  0  0  0  0  0  0  0  0  0  0
    3.1452   -8.0264    0.0000 C   0  0  0  0  0  0  0  0  0  0  0  0
    6.1873   -8.8857    0.0000 C   0  0  0  0  0  0  0  0  0  0  0  0
    6.1587   -7.4592    0.0000 C   0  0  0  0  0  0  0  0  0  0  0  0
    5.0358   -5.0072    0.0000 C   0  0  0  0  0  0  0  0  0  0  0  0
    9.4587   -7.3962    0.0000 C   0  0  0  0  0  0  0  0  0  0  0  0
    8.6623   -8.8399    0.0000 C   0  0  0  0  0  0  0  0  0  0  0  0
    3.0135   -3.5807    0.0000 C   0  0  0  0  0  0  0  0  0  0  0  0
    2.3374   -7.8603    0.0000 C   0  0  0  0  0  0  0  0  0  0  0  0
    1.7932   -8.4790    0.0000 C   0  0  0  0  0  0  0  0  0  0  0  0
    9.8883   -8.1009    0.0000 C   0  0  0  0  0  0  0  0  0  0  0  0
    9.4873   -8.8227    0.0000 C   0  0  0  0  0  0  0  0  0  0  0  0
    0.9854   -8.3243    0.0000 C   0  0  0  0  0  0  0  0  0  0  0  0
  2  3  1  0
  3  1  1  0
  4  1  1  0
  5  4  2  0
  6 12  1  0
  7  1  1  0
  8  6  1  0
  9  8  1  0
 10  6  2  0
 11 10  1  0
 12 14  1  0
 13  7  1  0
 14 17  1  0
 15  2  1  0
 16  3  2  0
 17 21  2  0
 18 13  2  0
 19 13  1  0
 20 24  2  0
 21 25  1  0
 22 15  1  0
 23  5  1  0
 24 22  1  0
 25 22  2  0
 26  7  1  0
 27 12  2  0
 28 14  2  0
 29 19  1  0
 30 23  1  0
 31 30  1  0
 32 33  2  0
 33 28  1  0
 34 31  1  0
  2  5  1  0
 17 20  1  0
 27 32  1  0
  9 11  2  0
M  END
>  <From>  (1) 
www.bindingDB.org

>  <BindingDB Reactant_set_id>  (1) 
50060532

>  <Ligand InChI>  (1) 
InChI=1S/C24H28N8O2/c1-4-5-10-21-28-32(16(2)23(33)25-3)24(34)31(21)15-17-11-13-18(14-12-17)19-8-6-7-9-20(19)22-26-29-30-27-22/h6-9,11-14,16H,4-5,10,15H2,1-3H3,(H,25,33)(H,26,27,29,30)

>  <Ligand InChI Key>  (1) 
LWSXBIHXAZTDKP-UHFFFAOYSA-N

>  <BindingDB MonomerID>  (1) 
50044473

>  <BindingDB Ligand Name>  (1) 
2-{3-Butyl-5-oxo-4-[2'-(2H-tetrazol-5-yl)-biphenyl-4-ylmethyl]-4,5-dihydro-[1,2,4]triazol-1-yl}-N-methyl-propionamide::CHEMBL87682

>  <Target Name>  (1) 
Type-1 angiotensin II receptor

>  <Target Source Organism According to Curator or DataSource>  (1) 
Oryctolagus cuniculus

>  <Ki (nM)>  (1) 


>  <IC50 (nM)>  (1) 
 95

>  <Kd (nM)>  (1) 


>  <EC50 (nM)>  (1) 


>  <kon (M-1-s-1)>  (1) 


>  <koff (s-1)>  (1) 


>  <pH>  (1) 


>  <Temp C>  (1) 


>  <Curation/DataSource>  (1) 
ChEMBL

>  <Article DOI>  (1) 
10.1021/jm00069a015

>  <BindingDB Entry DOI>  (1) 
10.7270/Q2KP817C

>  <PMID>  (1) 
8355255

>  <PubChem AID>  (1) 


>  <Patent Number>  (1) 


>  <Authors>  (1) 
Chang, LL; Ashton, WT; Flanagan, KL; Strelitz, RA; MacCoss, M; Greenlee, WJ; Chang, RS; Lotti, VJ; Faust, KA; Chen, TB

>  <Institution>  (1) 
Merck Research Laboratories

>  <Link to Ligand in BindingDB>  (1) 
http://www.bindingdb.org/bind/chemsearch/marvin/MolStructure.jsp?monomerid=50044473

>  <Link to Ligand-Target Pair in BindingDB>  (1) 
http://www.bindingdb.org/jsp/dbsearch/PrimarySearch_ki.jsp?energyterm=kJ/mole&tag=r21&monomerid=50044473&enzyme=Type-1+angiotensin+II+receptor&column=ki&startPg=0&Increment=50&submit=Search

>  <Ligand HET ID in PDB>  (1) 


>  <PDB ID(s) for Ligand-Target Complex>  (1) 


>  <PubChem CID of Ligand>  (1) 
14956785

>  <PubChem SID of Ligand>  (1) 
103975711

>  <ChEBI ID of Ligand>  (1) 


>  <ChEMBL ID of Ligand>  (1) 
CHEMBL87682

>  <DrugBank ID of Ligand>  (1) 


>  <IUPHAR_GRAC ID of Ligand>  (1) 


>  <KEGG ID of Ligand>  (1) 


>  <ZINC ID of Ligand>  (1) 
ZINC13832680

>  <Number of Protein Chains in Target (bigger than 1 implies a multichain complex)>  (1) 
1

>  <BindingDB Target Chain Sequence>  (1) 
MMLNSSTEDGIKRIQDDCPKAGRHNYIFVMIPTLYSIIFVVGIFGNSLAVIVIYFYMKLKTVASVFLLNLALADLCFLLTLPLWAVYTAMEYRWPFGNYLCKIASASVSFNLYASVFLLTCLSIDRYLAIVHPMKSRLRRTMLVAKVTCIIIWLLAGLASLPAIIHRNVFFIENTNITVCAFHYESQNSTLPIGLGLTKNILGFLFPFLIILTSYTLIWKALKKAYEIQKNKPRNDDIFKIIMAIVLFFFFSWVPHQIFTFLDVLIQLGVIHDCRIADIVDTAMPITICIAYFNNCLNPLFYGFLGKKFKKYFLQLLKYIPPKAKSHSNLSTKMSTLSYRPSDNVSSSSKKPVPCFEVE

>  <PDB ID(s) of Target Chain>  (1) 
6DO1,6OS0,6OS1,6OS2

>  <UniProt (SwissProt) Recommended Name of Target Chain>  (1) 
Type-1 angiotensin II receptor

>  <UniProt (SwissProt) Entry Name of Target Chain>  (1) 
AGTR1_RABIT

>  <UniProt (SwissProt) Primary ID of Target Chain>  (1) 
P34976

>  <UniProt (SwissProt) Secondary ID(s) of Target Chain>  (1) 


>  <UniProt (SwissProt) Alternative ID(s) of Target Chain>  (1) 


>  <UniProt (TrEMBL) Submitted Name of Target Chain>  (1) 


>  <UniProt (TrEMBL) Entry Name of Target Chain>  (1) 


>  <UniProt (TrEMBL) Primary ID of Target Chain>  (1) 


>  <UniProt (TrEMBL) Secondary ID(s) of Target Chain>  (1) 


>  <UniProt (TrEMBL) Alternative ID(s) of Target Chain>  (1) 


$$$$
