
     RDKit          2D

 32 36  0  0  0  0  0  0  0  0999 V2000
    2.7292   -0.1750    0.0000 C   0  0  0  0  0  0  0  0  0  0  0  0
    3.0667    0.5708    0.0000 N   0  0  0  0  0  0  0  0  0  0  0  0
    3.8917    0.4833    0.0000 N   0  0  0  0  0  0  0  0  0  0  0  0
    3.3500   -0.7292    0.0000 N   0  0  0  0  0  0  0  0  0  0  0  0
    2.0167   -0.5875    0.0000 C   0  0  0  0  0  0  0  0  0  0  0  0
    4.0542   -0.3250    0.0000 N   0  0  0  0  0  0  0  0  0  0  0  0
    1.3042   -0.1750    0.0000 C   0  0  0  0  0  0  0  0  0  0  0  0
    0.5917    6.0250    0.0000 N   0  0  0  0  0  0  0  0  0  0  0  0
    1.3042    4.7792    0.0000 C   0  0  0  0  0  0  0  0  0  0  0  0
    0.5917    4.3750    0.0000 C   0  0  0  0  0  0  0  0  0  0  0  0
    1.3042    5.6042    0.0000 C   0  0  0  0  0  0  0  0  0  0  0  0
   -0.1250    4.7792    0.0000 C   0  0  0  0  0  0  0  0  0  0  0  0
    0.5875   -0.5875    0.0000 C   0  0  0  0  0  0  0  0  0  0  0  0
   -0.1250    5.6042    0.0000 C   0  0  0  0  0  0  0  0  0  0  0  0
    1.3042    0.6583    0.0000 C   0  0  0  0  0  0  0  0  0  0  0  0
    0.5917    3.5500    0.0000 O   0  0  0  0  0  0  0  0  0  0  0  0
    2.0167   -1.4167    0.0000 C   0  0  0  0  0  0  0  0  0  0  0  0
    0.5875    1.0708    0.0000 C   0  0  0  0  0  0  0  0  0  0  0  0
    2.0167    1.0708    0.0000 C   0  0  0  0  0  0  0  0  0  0  0  0
    0.5875   -1.4167    0.0000 C   0  0  0  0  0  0  0  0  0  0  0  0
    1.3042   -1.8292    0.0000 C   0  0  0  0  0  0  0  0  0  0  0  0
    1.3042    3.1458    0.0000 C   0  0  0  0  0  0  0  0  0  0  0  0
    1.3042    2.3083    0.0000 C   0  0  0  0  0  0  0  0  0  0  0  0
    0.5875    1.8958    0.0000 C   0  0  0  0  0  0  0  0  0  0  0  0
    2.0167    1.8958    0.0000 C   0  0  0  0  0  0  0  0  0  0  0  0
    2.0167    4.3750    0.0000 C   0  0  0  0  0  0  0  0  0  0  0  0
    2.0167    6.0250    0.0000 C   0  0  0  0  0  0  0  0  0  0  0  0
   -0.8458    6.0250    0.0000 C   0  0  0  0  0  0  0  0  0  0  0  0
    1.3042   -2.6542    0.0000 C   0  0  0  0  0  0  0  0  0  0  0  0
    2.7292    4.7792    0.0000 C   0  0  0  0  0  0  0  0  0  0  0  0
   -1.5583    5.6042    0.0000 C   0  0  0  0  0  0  0  0  0  0  0  0
    2.7292    5.6042    0.0000 C   0  0  0  0  0  0  0  0  0  0  0  0
  2  1  1  0
  3  2  1  0
  4  1  2  0
  5  1  1  0
  6  4  1  0
  7  5  1  0
  8 14  2  0
  9 10  1  0
 10 16  1  0
 11  9  2  0
 12 10  2  0
 13  7  2  0
 14 12  1  0
 15  7  1  0
 16 22  1  0
 17  5  2  0
 18 15  2  0
 19 15  1  0
 20 21  2  0
 21 17  1  0
 22 23  1  0
 23 25  1  0
 24 18  1  0
 25 19  2  0
 26  9  1  0
 27 11  1  0
 28 14  1  0
 29 21  1  0
 30 26  1  0
 31 28  1  0
 32 30  1  0
  3  6  2  0
 13 20  1  0
 23 24  2  0
 11  8  1  0
 32 27  1  0
M  END
>  <From>  (1) 
www.bindingDB.org

>  <BindingDB Reactant_set_id>  (1) 
50003201

>  <Ligand InChI>  (1) 
InChI=1S/C26H27N5O/c1-3-20-15-25(22-6-4-5-7-24(22)27-20)32-16-18-9-11-19(12-10-18)21-13-8-17(2)14-23(21)26-28-30-31-29-26/h8-15H,3-7,16H2,1-2H3,(H,28,29,30,31)

>  <Ligand InChI Key>  (1) 
YCHCSDRQYNIEBW-UHFFFAOYSA-N

>  <BindingDB MonomerID>  (1) 
50283592

>  <BindingDB Ligand Name>  (1) 
2-Ethyl-4-[4'-methyl-2'-(2H-tetrazol-5-yl)-biphenyl-4-ylmethoxy]-5,6,7,8-tetrahydro-quinoline::CHEMBL89614

>  <Target Name>  (1) 
Type-1 angiotensin II receptor

>  <Target Source Organism According to Curator or DataSource>  (1) 
Cavia porcellus

>  <Ki (nM)>  (1) 


>  <IC50 (nM)>  (1) 
 54

>  <Kd (nM)>  (1) 


>  <EC50 (nM)>  (1) 


>  <kon (M-1-s-1)>  (1) 


>  <koff (s-1)>  (1) 


>  <pH>  (1) 


>  <Temp C>  (1) 


>  <Curation/DataSource>  (1) 
ChEMBL

>  <Article DOI>  (1) 
10.1016/S0960-894X(01)80295-X

>  <BindingDB Entry DOI>  (1) 
10.7270/Q22J6BTX

>  <PMID>  (1) 


>  <PubChem AID>  (1) 


>  <Patent Number>  (1) 


>  <Authors>  (1) 
Thomas, AP; Roberts, DA; Thomason, DA

>  <Institution>  (1) 
TBA

>  <Link to Ligand in BindingDB>  (1) 
http://www.bindingdb.org/bind/chemsearch/marvin/MolStructure.jsp?monomerid=50283592

>  <Link to Ligand-Target Pair in BindingDB>  (1) 
http://www.bindingdb.org/jsp/dbsearch/PrimarySearch_ki.jsp?energyterm=kJ/mole&tag=r21&monomerid=50283592&enzyme=Type-1+angiotensin+II+receptor&column=ki&startPg=0&Increment=50&submit=Search

>  <Ligand HET ID in PDB>  (1) 


>  <PDB ID(s) for Ligand-Target Complex>  (1) 


>  <PubChem CID of Ligand>  (1) 
15171420

>  <PubChem SID of Ligand>  (1) 
104125249

>  <ChEBI ID of Ligand>  (1) 


>  <ChEMBL ID of Ligand>  (1) 
CHEMBL89614

>  <DrugBank ID of Ligand>  (1) 


>  <IUPHAR_GRAC ID of Ligand>  (1) 


>  <KEGG ID of Ligand>  (1) 


>  <ZINC ID of Ligand>  (1) 
ZINC26577660

>  <Number of Protein Chains in Target (bigger than 1 implies a multichain complex)>  (1) 
1

>  <BindingDB Target Chain Sequence>  (1) 
MILNSSTEDGIKRIQDDCPKAGRHSYIFVMIPTLYSIIFVVGIFGNSLVVIVIYFYMKLKTVASVFLLNLALADICFLLTLPLWAVYTAMEYRWPFGNYLCKIASASVSFNLYASVFLLTCLSIDRYLAIVHPMKSRLRRTMLVAKVTCVIIWLMAGLASLPAVIHRNVFFIENTNITVCAFHYESQNSTLPIGLGLTKNILGFMFPFLIILTSYTLIWKALKKAYEIQKNKPRNDDIFKIIMAIVLFFFFSWVPHQIFTFLDVLIQLGIIHDCKISDIVDTAMPITICIAYFNNCLNPLFYGFLGKKFKKYFLQLLKYIPPKAKSHSTLSTKMSTLSYRPSDNVSSSAKKPVQCFEVE

>  <PDB ID(s) of Target Chain>  (1) 
4ZUD

>  <UniProt (SwissProt) Recommended Name of Target Chain>  (1) 
Type-1 angiotensin II receptor

>  <UniProt (SwissProt) Entry Name of Target Chain>  (1) 
AGTR1_CAVPO

>  <UniProt (SwissProt) Primary ID of Target Chain>  (1) 
Q9WV26

>  <UniProt (SwissProt) Secondary ID(s) of Target Chain>  (1) 


>  <UniProt (SwissProt) Alternative ID(s) of Target Chain>  (1) 


>  <UniProt (TrEMBL) Submitted Name of Target Chain>  (1) 


>  <UniProt (TrEMBL) Entry Name of Target Chain>  (1) 


>  <UniProt (TrEMBL) Primary ID of Target Chain>  (1) 


>  <UniProt (TrEMBL) Secondary ID(s) of Target Chain>  (1) 


>  <UniProt (TrEMBL) Alternative ID(s) of Target Chain>  (1) 


$$$$
