
     RDKit          2D

 42 45  0  0  0  0  0  0  0  0999 V2000
   27.5988  -10.3635    0.0000 Br  0  0  0  0  0  0  0  0  0  0  0  0
   24.2712   -8.1848    0.0000 C   0  0  0  0  0  0  0  0  0  0  0  0
   24.1028   -8.9869    0.0000 C   0  0  0  0  0  0  0  0  0  0  0  0
   24.7125   -9.5318    0.0000 C   0  0  0  0  0  0  0  0  0  0  0  0
   25.4908   -9.2758    0.0000 C   0  0  0  0  0  0  0  0  0  0  0  0
   25.6559   -8.4699    0.0000 C   0  0  0  0  0  0  0  0  0  0  0  0
   25.0449   -7.9285    0.0000 C   0  0  0  0  0  0  0  0  0  0  0  0
   25.2060   -7.1302    0.0000 C   0  0  0  0  0  0  0  0  0  0  0  0
   25.9829   -6.8733    0.0000 C   0  0  0  0  0  0  0  0  0  0  0  0
   26.1475   -6.0736    0.0000 C   0  0  0  0  0  0  0  0  0  0  0  0
   25.5361   -5.5301    0.0000 C   0  0  0  0  0  0  0  0  0  0  0  0
   24.7575   -5.7918    0.0000 C   0  0  0  0  0  0  0  0  0  0  0  0
   24.5966   -6.5908    0.0000 C   0  0  0  0  0  0  0  0  0  0  0  0
   25.6995   -4.7294    0.0000 C   0  0  0  0  0  0  0  0  0  0  0  0
   26.4745   -4.4705    0.0000 N   0  0  0  0  0  0  0  0  0  0  0  0
   27.1348   -4.9475    0.0000 C   0  0  0  0  0  0  0  0  0  0  0  0
   27.7919   -4.4617    0.0000 N   0  0  0  0  0  0  0  0  0  0  0  0
   27.5330   -3.6866    0.0000 C   0  0  0  0  0  0  0  0  0  0  0  0
   26.7159   -3.6934    0.0000 C   0  0  0  0  0  0  0  0  0  0  0  0
   28.5712   -4.7079    0.0000 C   0  0  0  0  0  0  0  0  0  0  0  0
   28.7476   -5.5058    0.0000 C   0  0  0  0  0  0  0  0  0  0  0  0
   28.1429   -6.0560    0.0000 C   0  0  0  0  0  0  0  0  0  0  0  0
   28.3188   -6.8532    0.0000 C   0  0  0  0  0  0  0  0  0  0  0  0
   29.0987   -7.1001    0.0000 C   0  0  0  0  0  0  0  0  0  0  0  0
   29.7029   -6.5435    0.0000 C   0  0  0  0  0  0  0  0  0  0  0  0
   29.5238   -5.7483    0.0000 C   0  0  0  0  0  0  0  0  0  0  0  0
   29.2747   -7.8938    0.0000 C   0  0  0  0  0  0  0  0  0  0  0  0
   28.6709   -8.4461    0.0000 C   0  0  0  0  0  0  0  0  0  0  0  0
   28.8480   -9.2431    0.0000 C   0  0  0  0  0  0  0  0  0  0  0  0
   29.6282   -9.4889    0.0000 C   0  0  0  0  0  0  0  0  0  0  0  0
   30.2316   -8.9315    0.0000 C   0  0  0  0  0  0  0  0  0  0  0  0
   30.0515   -8.1366    0.0000 C   0  0  0  0  0  0  0  0  0  0  0  0
   28.0079   -3.0215    0.0000 C   0  0  0  0  0  0  0  0  0  0  0  0
   28.8213   -3.1002    0.0000 C   0  0  0  0  0  0  0  0  0  0  0  0
   29.2961   -2.4433    0.0000 C   0  0  0  0  0  0  0  0  0  0  0  0
   30.1095   -2.5214    0.0000 C   0  0  0  0  0  0  0  0  0  0  0  0
   30.6521   -7.5805    0.0000 C   0  0  0  0  0  0  0  0  0  0  0  0
   31.4324   -7.8235    0.0000 O   0  0  0  0  0  0  0  0  0  0  0  0
   30.4724   -6.7833    0.0000 O   0  0  0  0  0  0  0  0  0  0  0  0
   23.6588   -7.6406    0.0000 C   0  0  0  0  0  0  0  0  0  0  0  0
   23.8254   -6.8406    0.0000 O   0  0  0  0  0  0  0  0  0  0  0  0
   22.8827   -7.8964    0.0000 O   0  0  0  0  0  0  0  0  0  0  0  0
  2  3  2  0
  3  4  1  0
  4  5  2  0
  5  6  1  0
  6  7  2  0
  7  2  1  0
  8  9  2  0
  9 10  1  0
 10 11  2  0
 11 12  1  0
 12 13  2  0
 13  8  1  0
  7  8  1  0
 11 14  1  0
 14 15  1  0
 15 16  2  0
 16 17  1  0
 17 18  1  0
 18 19  2  0
 19 15  1  0
 17 20  1  0
 20 21  1  0
 21 22  2  0
 22 23  1  0
 23 24  2  0
 24 25  1  0
 25 26  2  0
 26 21  1  0
 27 28  2  0
 28 29  1  0
 29 30  2  0
 30 31  1  0
 31 32  2  0
 32 27  1  0
 24 27  1  0
 18 33  1  0
 33 34  1  0
 34 35  1  0
 35 36  1  0
 37 38  1  0
 37 39  2  0
 32 37  1  0
 40 41  1  0
 40 42  2  0
  2 40  1  0
M  CHG  2   1  -1  15   1
M  END
>  <From>  (1) 
www.bindingDB.org

>  <BindingDB Reactant_set_id>  (1) 
51192210

>  <Ligand InChI>  (1) 
InChI=1S/C35H32N2O4/c1-2-3-8-29-23-36(21-25-13-17-27(18-14-25)30-9-4-6-11-32(30)34(38)39)24-37(29)22-26-15-19-28(20-16-26)31-10-5-7-12-33(31)35(40)41/h4-7,9-20,23-24H,2-3,8,21-22H2,1H3,(H-,38,39,40,41)/p+1

>  <Ligand InChI Key>  (1) 
RYWXIGJDHPSFGU-UHFFFAOYSA-O

>  <BindingDB MonomerID>  (1) 
50490704

>  <BindingDB Ligand Name>  (1) 
CHEMBL2337684

>  <Target Name>  (1) 
Type-1 angiotensin II receptor

>  <Target Source Organism According to Curator or DataSource>  (1) 
Homo sapiens

>  <Ki (nM)>  (1) 


>  <IC50 (nM)>  (1) 
 331

>  <Kd (nM)>  (1) 


>  <EC50 (nM)>  (1) 


>  <kon (M-1-s-1)>  (1) 


>  <koff (s-1)>  (1) 


>  <pH>  (1) 


>  <Temp C>  (1) 


>  <Curation/DataSource>  (1) 
ChEMBL

>  <Article DOI>  (1) 
10.1016/j.ejmech.2012.12.044

>  <BindingDB Entry DOI>  (1) 
10.7270/Q2DF6V47

>  <PMID>  (1) 
23376252

>  <PubChem AID>  (1) 


>  <Patent Number>  (1) 


>  <Authors>  (1) 
Agelis, G; Resvani, A; Koukoulitsa, C; Tůmová, T; Slaninová, J; Kalavrizioti, D; Spyridaki, K; Afantitis, A; Melagraki, G; Siafaka, A; Gkini, E; Megariotis, G; Grdadolnik, SG; Papadopoulos, MG; Vlahakos, D; Maragoudakis, M; Liapakis, G; Mavromoustakos, T; Matsoukas, J

>  <Institution>  (1) 
University of Patras

>  <Link to Ligand in BindingDB>  (1) 
http://www.bindingdb.org/bind/chemsearch/marvin/MolStructure.jsp?monomerid=50490704

>  <Link to Ligand-Target Pair in BindingDB>  (1) 
http://www.bindingdb.org/jsp/dbsearch/PrimarySearch_ki.jsp?energyterm=kJ/mole&tag=r21&monomerid=50490704&enzyme=Type-1+angiotensin+II+receptor&column=ki&startPg=0&Increment=50&submit=Search

>  <Ligand HET ID in PDB>  (1) 


>  <PDB ID(s) for Ligand-Target Complex>  (1) 


>  <PubChem CID of Ligand>  (1) 
71652855

>  <PubChem SID of Ligand>  (1) 
433957969

>  <ChEBI ID of Ligand>  (1) 


>  <ChEMBL ID of Ligand>  (1) 


>  <DrugBank ID of Ligand>  (1) 


>  <IUPHAR_GRAC ID of Ligand>  (1) 


>  <KEGG ID of Ligand>  (1) 


>  <ZINC ID of Ligand>  (1) 


>  <Number of Protein Chains in Target (bigger than 1 implies a multichain complex)>  (1) 
1

>  <BindingDB Target Chain Sequence>  (1) 
MILNSSTEDGIKRIQDDCPKAGRHNYIFVMIPTLYSIIFVVGIFGNSLVVIVIYFYMKLKTVASVFLLNLALADLCFLLTLPLWAVYTAMEYRWPFGNYLCKIASASVSFNLYASVFLLTCLSIDRYLAIVHPMKSRLRRTMLVAKVTCIIIWLLAGLASLPAIIHRNVFFIENTNITVCAFHYESQNSTLPIGLGLTKNILGFLFPFLIILTSYTLIWKALKKAYEIQKNKPRNDDIFKIIMAIVLFFFFSWIPHQIFTFLDVLIQLGIIRDCRIADIVDTAMPITICIAYFNNCLNPLFYGFLGKKFKRYFLQLLKYIPPKAKSHSNLSTKMSTLSYRPSDNVSSSTKKPAPCFEVE

>  <PDB ID(s) of Target Chain>  (1) 
6DO1,6OS0,6OS1,6OS2

>  <UniProt (SwissProt) Recommended Name of Target Chain>  (1) 
Type-1 angiotensin II receptor

>  <UniProt (SwissProt) Entry Name of Target Chain>  (1) 
AGTR1_HUMAN

>  <UniProt (SwissProt) Primary ID of Target Chain>  (1) 
P30556

>  <UniProt (SwissProt) Secondary ID(s) of Target Chain>  (1) 
Q13725 Q8TBK4

>  <UniProt (SwissProt) Alternative ID(s) of Target Chain>  (1) 


>  <UniProt (TrEMBL) Submitted Name of Target Chain>  (1) 


>  <UniProt (TrEMBL) Entry Name of Target Chain>  (1) 


>  <UniProt (TrEMBL) Primary ID of Target Chain>  (1) 


>  <UniProt (TrEMBL) Secondary ID(s) of Target Chain>  (1) 


>  <UniProt (TrEMBL) Alternative ID(s) of Target Chain>  (1) 


$$$$
