
     RDKit          2D

 35 39  0  0  0  0  0  0  0  0999 V2000
   10.2736   -2.6000    0.0000 C   0  0  0  0  0  0  0  0  0  0  0  0
   10.2724   -3.4273    0.0000 C   0  0  0  0  0  0  0  0  0  0  0  0
   10.9872   -3.8402    0.0000 C   0  0  0  0  0  0  0  0  0  0  0  0
   11.7037   -3.4269    0.0000 C   0  0  0  0  0  0  0  0  0  0  0  0
   11.7008   -2.5963    0.0000 C   0  0  0  0  0  0  0  0  0  0  0  0
   10.9854   -2.1872    0.0000 C   0  0  0  0  0  0  0  0  0  0  0  0
   12.4137   -2.1811    0.0000 S   0  0  0  0  0  0  0  0  0  0  0  0
   13.1297   -2.5909    0.0000 N   0  0  0  0  0  0  0  0  0  0  0  0
   11.9958   -1.4625    0.0000 O   0  0  0  0  0  0  0  0  0  0  0  0
   12.8208   -1.4625    0.0000 O   0  0  0  0  0  0  0  0  0  0  0  0
   13.8427   -2.1757    0.0000 C   0  0  0  0  0  0  0  0  0  0  0  0
   14.6224   -2.4419    0.0000 C   0  0  0  0  0  0  0  0  0  0  0  0
   15.1142   -1.7795    0.0000 C   0  0  0  0  0  0  0  0  0  0  0  0
   14.6362   -1.1070    0.0000 N   0  0  0  0  0  0  0  0  0  0  0  0
   13.8490   -1.3540    0.0000 O   0  0  0  0  0  0  0  0  0  0  0  0
   15.9391   -1.7880    0.0000 C   0  0  0  0  0  0  0  0  0  0  0  0
   14.8674   -3.2297    0.0000 C   0  0  0  0  0  0  0  0  0  0  0  0
   10.9801   -1.3651    0.0000 C   0  0  0  0  0  0  0  0  0  0  0  0
   11.6950   -0.9510    0.0000 C   0  0  0  0  0  0  0  0  0  0  0  0
   11.6929   -0.1268    0.0000 C   0  0  0  0  0  0  0  0  0  0  0  0
   10.9766    0.2844    0.0000 C   0  0  0  0  0  0  0  0  0  0  0  0
   10.2611   -0.1347    0.0000 C   0  0  0  0  0  0  0  0  0  0  0  0
   10.2667   -0.9575    0.0000 C   0  0  0  0  0  0  0  0  0  0  0  0
   10.9731    1.1094    0.0000 C   0  0  0  0  0  0  0  0  0  0  0  0
   10.2566    1.5185    0.0000 N   0  0  0  0  0  0  0  0  0  0  0  0
   10.2478    2.3405    0.0000 C   0  0  0  0  0  0  0  0  0  0  0  0
    9.4598    2.5848    0.0000 N   0  0  0  0  0  0  0  0  0  0  0  0
    9.4780    1.2501    0.0000 C   0  0  0  0  0  0  0  0  0  0  0  0
    8.9831    1.9136    0.0000 C   0  0  0  0  0  0  0  0  0  0  0  0
    8.1630    1.8159    0.0000 C   0  0  0  0  0  0  0  0  0  0  0  0
    7.8368    1.0555    0.0000 C   0  0  0  0  0  0  0  0  0  0  0  0
    8.3368    0.3919    0.0000 C   0  0  0  0  0  0  0  0  0  0  0  0
    9.1551    0.4928    0.0000 C   0  0  0  0  0  0  0  0  0  0  0  0
   10.9093    2.8335    0.0000 C   0  0  0  0  0  0  0  0  0  0  0  0
   11.6670    2.5071    0.0000 C   0  0  0  0  0  0  0  0  0  0  0  0
 12 17  1  0
  7  9  2  0
 18 19  2  0
  4  5  2  0
 19 20  1  0
  7 10  2  0
 20 21  2  0
  2  3  2  0
 21 22  1  0
  8 11  1  0
 22 23  2  0
 23 18  1  0
  6 18  1  0
 11 12  2  0
 21 24  1  0
  5  6  1  0
 24 25  1  0
 25 26  1  0
  6  1  2  0
  1  2  1  0
 26 27  2  0
 27 29  1  0
 28 25  1  0
  5  7  1  0
 12 13  1  0
 28 29  2  0
 13 14  2  0
 29 30  1  0
 14 15  1  0
 30 31  2  0
 15 11  1  0
 31 32  1  0
  3  4  1  0
 32 33  2  0
 33 28  1  0
 13 16  1  0
 26 34  1  0
  7  8  1  0
 34 35  1  0
M  END
>  <From>  (1) 
www.bindingDB.org

>  <BindingDB Reactant_set_id>  (1) 
50945415

>  <Ligand InChI>  (1) 
InChI=1S/C27H26N4O3S/c1-4-26-28-23-10-6-7-11-24(23)31(26)17-20-13-15-21(16-14-20)22-9-5-8-12-25(22)35(32,33)30-27-18(2)19(3)29-34-27/h5-16,30H,4,17H2,1-3H3

>  <Ligand InChI Key>  (1) 
QKHHIXDFXAGGQQ-UHFFFAOYSA-N

>  <BindingDB MonomerID>  (1) 
50387808

>  <BindingDB Ligand Name>  (1) 
CHEMBL2058368

>  <Target Name>  (1) 
Type-1 angiotensin II receptor

>  <Target Source Organism According to Curator or DataSource>  (1) 
Bos taurus

>  <Ki (nM)>  (1) 


>  <IC50 (nM)>  (1) 
 28

>  <Kd (nM)>  (1) 


>  <EC50 (nM)>  (1) 


>  <kon (M-1-s-1)>  (1) 


>  <koff (s-1)>  (1) 


>  <pH>  (1) 


>  <Temp C>  (1) 


>  <Curation/DataSource>  (1) 
ChEMBL

>  <Article DOI>  (1) 
10.1016/j.bmc.2012.06.011

>  <BindingDB Entry DOI>  (1) 
10.7270/Q2G73FS6

>  <PMID>  (1) 
22750010

>  <PubChem AID>  (1) 


>  <Patent Number>  (1) 


>  <Authors>  (1) 
Bai, R; Wei, Z; Liu, J; Xie, W; Yao, H; Wu, X; Jiang, J; Wang, Q; Xu, J

>  <Institution>  (1) 
China Pharmaceutical University

>  <Link to Ligand in BindingDB>  (1) 
http://www.bindingdb.org/bind/chemsearch/marvin/MolStructure.jsp?monomerid=50387808

>  <Link to Ligand-Target Pair in BindingDB>  (1) 
http://www.bindingdb.org/jsp/dbsearch/PrimarySearch_ki.jsp?energyterm=kJ/mole&tag=r21&monomerid=50387808&enzyme=Type-1+angiotensin+II+receptor&column=ki&startPg=0&Increment=50&submit=Search

>  <Ligand HET ID in PDB>  (1) 


>  <PDB ID(s) for Ligand-Target Complex>  (1) 


>  <PubChem CID of Ligand>  (1) 
70686381

>  <PubChem SID of Ligand>  (1) 
160866891

>  <ChEBI ID of Ligand>  (1) 


>  <ChEMBL ID of Ligand>  (1) 
CHEMBL2058368

>  <DrugBank ID of Ligand>  (1) 


>  <IUPHAR_GRAC ID of Ligand>  (1) 


>  <KEGG ID of Ligand>  (1) 


>  <ZINC ID of Ligand>  (1) 
ZINC84703643

>  <Number of Protein Chains in Target (bigger than 1 implies a multichain complex)>  (1) 
1

>  <BindingDB Target Chain Sequence>  (1) 
MILNSSTEDGIKRIQDDCPKAGRHNYIFIMIPTLYSIIFVVGIFGNSLVVIVIYFYMKLKTVASVFLLNLALADLCFLLTLPLWAVYTAMEYRWPFGNYLCKIASASVSFNLYASVFLLTCLSIDRYLAIVHPMKSRLRRTMLVAKVTCIIIWLLAGLASLPTIIHRNVFFIENTNITVCAFHYESQNSTLPVGLGLTKNILGFLFPFLIILTSYTLIWKTLKKAYEIQKNKPRKDDIFKIILAIVLFFFFSWVPHQIFTFMDVLIQLGLIRDCKIEDIVDTAMPITICLAYFNNCLNPLFYGFLGKKFKKYFLQLLKYIPPKAKSHSNLSTKMSTLSYRPSENGNSSTKKPAPCIEVE

>  <PDB ID(s) of Target Chain>  (1) 


>  <UniProt (SwissProt) Recommended Name of Target Chain>  (1) 
Type-1 angiotensin II receptor

>  <UniProt (SwissProt) Entry Name of Target Chain>  (1) 
AGTR1_BOVIN

>  <UniProt (SwissProt) Primary ID of Target Chain>  (1) 
P25104

>  <UniProt (SwissProt) Secondary ID(s) of Target Chain>  (1) 


>  <UniProt (SwissProt) Alternative ID(s) of Target Chain>  (1) 


>  <UniProt (TrEMBL) Submitted Name of Target Chain>  (1) 


>  <UniProt (TrEMBL) Entry Name of Target Chain>  (1) 


>  <UniProt (TrEMBL) Primary ID of Target Chain>  (1) 


>  <UniProt (TrEMBL) Secondary ID(s) of Target Chain>  (1) 


>  <UniProt (TrEMBL) Alternative ID(s) of Target Chain>  (1) 


$$$$
