
     RDKit          2D

 41 44  0  0  0  0  0  0  0  0999 V2000
    4.3282   -7.4649    0.0000 N   0  0  0  0  0  0  0  0  0  0  0  0
    4.9738   -6.9483    0.0000 C   0  0  0  0  0  0  0  0  0  0  0  0
    4.6781   -6.1777    0.0000 C   0  0  0  0  0  0  0  0  0  0  0  0
    3.8533   -6.2152    0.0000 N   0  0  0  0  0  0  0  0  0  0  0  0
    3.6408   -7.0150    0.0000 C   0  0  0  0  0  0  0  0  0  0  0  0
    7.9398   -8.5230    0.0000 C   0  0  0  0  0  0  0  0  0  0  0  0
    7.4649   -7.2775    0.0000 N   0  0  0  0  0  0  0  0  0  0  0  0
    7.2483   -8.0731    0.0000 N   0  0  0  0  0  0  0  0  0  0  0  0
    8.2855   -7.2358    0.0000 N   0  0  0  0  0  0  0  0  0  0  0  0
    8.5772   -8.0023    0.0000 N   0  0  0  0  0  0  0  0  0  0  0  0
    5.7653   -7.1650    0.0000 C   0  0  0  0  0  0  0  0  0  0  0  0
    7.9898   -9.3395    0.0000 C   0  0  0  0  0  0  0  0  0  0  0  0
    7.2983   -9.7894    0.0000 C   0  0  0  0  0  0  0  0  0  0  0  0
    4.3657   -8.2897    0.0000 C   0  0  0  0  0  0  0  0  0  0  0  0
    5.1280   -5.4862    0.0000 C   0  0  0  0  0  0  0  0  0  0  0  0
    6.5651   -9.4145    0.0000 C   0  0  0  0  0  0  0  0  0  0  0  0
    5.7653   -7.7149    0.0000 O   0  0  0  0  0  0  0  0  0  0  0  0
    5.8736   -9.8644    0.0000 C   0  0  0  0  0  0  0  0  0  0  0  0
    6.5276   -8.5897    0.0000 C   0  0  0  0  0  0  0  0  0  0  0  0
    4.7614   -4.7531    0.0000 N   0  0  0  0  0  0  0  0  0  0  0  0
    5.1030   -8.6646    0.0000 C   0  0  0  0  0  0  0  0  0  0  0  0
    6.3527   -6.5859    0.0000 O   0  0  0  0  0  0  0  0  0  0  0  0
    2.8660   -7.3025    0.0000 C   0  0  0  0  0  0  0  0  0  0  0  0
    5.7903   -8.2147    0.0000 C   0  0  0  0  0  0  0  0  0  0  0  0
    5.1405   -9.4894    0.0000 C   0  0  0  0  0  0  0  0  0  0  0  0
    8.7229   -9.7144    0.0000 C   0  0  0  0  0  0  0  0  0  0  0  0
    7.3400  -10.6142    0.0000 C   0  0  0  0  0  0  0  0  0  0  0  0
    3.9408   -4.7031    0.0000 C   0  0  0  0  0  0  0  0  0  0  0  0
    5.2155   -4.0615    0.0000 C   0  0  0  0  0  0  0  0  0  0  0  0
    2.2287   -6.7859    0.0000 C   0  0  0  0  0  0  0  0  0  0  0  0
    3.5659   -3.9658    0.0000 C   0  0  0  0  0  0  0  0  0  0  0  0
    4.8405   -3.3242    0.0000 C   0  0  0  0  0  0  0  0  0  0  0  0
    2.3744   -3.1867    0.0000 C   0  0  0  0  0  0  0  0  0  0  0  0
    4.9238   -1.8995    0.0000 C   0  0  0  0  0  0  0  0  0  0  0  0
    5.2904   -2.6369    0.0000 C   0  0  0  0  0  0  0  0  0  0  0  0
    2.7410   -3.9241    0.0000 C   0  0  0  0  0  0  0  0  0  0  0  0
    8.0731  -10.9891    0.0000 C   0  0  0  0  0  0  0  0  0  0  0  0
    8.7646  -10.5475    0.0000 C   0  0  0  0  0  0  0  0  0  0  0  0
    1.4622   -7.0775    0.0000 C   0  0  0  0  0  0  0  0  0  0  0  0
    1.5496   -3.1410    0.0000 C   0  0  0  0  0  0  0  0  0  0  0  0
    5.3737   -1.2039    0.0000 C   0  0  0  0  0  0  0  0  0  0  0  0
  2  1  1  0
  3  2  2  0
  4  5  2  0
  5  1  1  0
  6 12  1  0
  7  8  1  0
  8  6  1  0
  9 10  1  0
 10  6  2  0
 11  2  1  0
 12 13  1  0
 13 16  1  0
 14  1  1  0
 15  3  1  0
 16 18  2  0
 17 11  2  0
 18 25  1  0
 19 24  2  0
 20 15  1  0
 21 14  1  0
 22 11  1  0
 23  5  1  0
 24 21  1  0
 25 21  2  0
 26 12  2  0
 27 13  2  0
 28 20  1  0
 29 20  1  0
 30 23  1  0
 31 28  1  0
 32 29  1  0
 33 36  1  0
 34 35  1  0
 35 32  1  0
 36 31  1  0
 37 27  1  0
 38 37  2  0
 39 30  1  0
 40 33  1  0
 41 34  1  0
  4  3  1  0
 16 19  1  0
 26 38  1  0
  7  9  2  0
M  END
>  <From>  (1) 
www.bindingDB.org

>  <BindingDB Reactant_set_id>  (1) 
50469031

>  <Ligand InChI>  (1) 
InChI=1S/C32H43N7O2/c1-4-7-11-20-38(21-12-8-5-2)23-28-30(32(40)41)39(29(33-28)13-6-3)22-24-16-18-25(19-17-24)26-14-9-10-15-27(26)31-34-36-37-35-31/h9-10,14-19H,4-8,11-13,20-23H2,1-3H3,(H,40,41)(H,34,35,36,37)

>  <Ligand InChI Key>  (1) 
LPIXEUUSKNZULE-UHFFFAOYSA-N

>  <BindingDB MonomerID>  (1) 
50283174

>  <BindingDB Ligand Name>  (1) 
5-Dipentylaminomethyl-2-propyl-3-[2'-(1H-tetrazol-5-yl)-biphenyl-4-ylmethyl]-3H-imidazole-4-carboxylic acid::CHEMBL71953

>  <Target Name>  (1) 
Type-1 angiotensin II receptor

>  <Target Source Organism According to Curator or DataSource>  (1) 
Homo sapiens

>  <Ki (nM)>  (1) 


>  <IC50 (nM)>  (1) 
 2

>  <Kd (nM)>  (1) 


>  <EC50 (nM)>  (1) 


>  <kon (M-1-s-1)>  (1) 


>  <koff (s-1)>  (1) 


>  <pH>  (1) 


>  <Temp C>  (1) 


>  <Curation/DataSource>  (1) 
ChEMBL

>  <Article DOI>  (1) 
10.1016/S0960-894X(00)80076-1

>  <BindingDB Entry DOI>  (1) 
10.7270/Q2JQ110M

>  <PMID>  (1) 


>  <PubChem AID>  (1) 


>  <Patent Number>  (1) 


>  <Authors>  (1) 
Olson, RE; Liu, J; Lalka, GK; VanAtten, MK; Wexler, RR; Chiu, AT; Nguyen, TT; McCall, DE; Wong, PC; Timmermans, PB

>  <Institution>  (1) 
TBA

>  <Link to Ligand in BindingDB>  (1) 
http://www.bindingdb.org/bind/chemsearch/marvin/MolStructure.jsp?monomerid=50283174

>  <Link to Ligand-Target Pair in BindingDB>  (1) 
http://www.bindingdb.org/jsp/dbsearch/PrimarySearch_ki.jsp?energyterm=kJ/mole&tag=r21&monomerid=50283174&enzyme=Type-1+angiotensin+II+receptor&column=ki&startPg=0&Increment=50&submit=Search

>  <Ligand HET ID in PDB>  (1) 


>  <PDB ID(s) for Ligand-Target Complex>  (1) 


>  <PubChem CID of Ligand>  (1) 
44311499

>  <PubChem SID of Ligand>  (1) 
104124848

>  <ChEBI ID of Ligand>  (1) 


>  <ChEMBL ID of Ligand>  (1) 
CHEMBL71953

>  <DrugBank ID of Ligand>  (1) 


>  <IUPHAR_GRAC ID of Ligand>  (1) 


>  <KEGG ID of Ligand>  (1) 


>  <ZINC ID of Ligand>  (1) 
ZINC26288956

>  <Number of Protein Chains in Target (bigger than 1 implies a multichain complex)>  (1) 
1

>  <BindingDB Target Chain Sequence>  (1) 
MILNSSTEDGIKRIQDDCPKAGRHNYIFVMIPTLYSIIFVVGIFGNSLVVIVIYFYMKLKTVASVFLLNLALADLCFLLTLPLWAVYTAMEYRWPFGNYLCKIASASVSFNLYASVFLLTCLSIDRYLAIVHPMKSRLRRTMLVAKVTCIIIWLLAGLASLPAIIHRNVFFIENTNITVCAFHYESQNSTLPIGLGLTKNILGFLFPFLIILTSYTLIWKALKKAYEIQKNKPRNDDIFKIIMAIVLFFFFSWIPHQIFTFLDVLIQLGIIRDCRIADIVDTAMPITICIAYFNNCLNPLFYGFLGKKFKRYFLQLLKYIPPKAKSHSNLSTKMSTLSYRPSDNVSSSTKKPAPCFEVE

>  <PDB ID(s) of Target Chain>  (1) 
6DO1,6OS0,6OS1,6OS2

>  <UniProt (SwissProt) Recommended Name of Target Chain>  (1) 
Type-1 angiotensin II receptor

>  <UniProt (SwissProt) Entry Name of Target Chain>  (1) 
AGTR1_HUMAN

>  <UniProt (SwissProt) Primary ID of Target Chain>  (1) 
P30556

>  <UniProt (SwissProt) Secondary ID(s) of Target Chain>  (1) 
Q13725 Q8TBK4

>  <UniProt (SwissProt) Alternative ID(s) of Target Chain>  (1) 


>  <UniProt (TrEMBL) Submitted Name of Target Chain>  (1) 


>  <UniProt (TrEMBL) Entry Name of Target Chain>  (1) 


>  <UniProt (TrEMBL) Primary ID of Target Chain>  (1) 


>  <UniProt (TrEMBL) Secondary ID(s) of Target Chain>  (1) 


>  <UniProt (TrEMBL) Alternative ID(s) of Target Chain>  (1) 


$$$$
