
     RDKit          2D

 39 43  0  0  0  0  0  0  0  0999 V2000
   25.6782  -28.8163    0.0000 C   0  0  0  0  0  0  0  0  0  0  0  0
   25.6771  -29.6358    0.0000 C   0  0  0  0  0  0  0  0  0  0  0  0
   26.3851  -30.0448    0.0000 C   0  0  0  0  0  0  0  0  0  0  0  0
   27.0948  -29.6353    0.0000 C   0  0  0  0  0  0  0  0  0  0  0  0
   27.0919  -28.8127    0.0000 C   0  0  0  0  0  0  0  0  0  0  0  0
   26.3833  -28.4074    0.0000 C   0  0  0  0  0  0  0  0  0  0  0  0
   27.8031  -30.0428    0.0000 N   0  0  0  0  0  0  0  0  0  0  0  0
   28.5102  -29.6331    0.0000 C   0  0  0  0  0  0  0  0  0  0  0  0
   29.2185  -30.0406    0.0000 C   0  0  0  0  0  0  0  0  0  0  0  0
   28.5089  -28.8159    0.0000 O   0  0  0  0  0  0  0  0  0  0  0  0
   29.2152  -30.8562    0.0000 C   0  0  0  0  0  0  0  0  0  0  0  0
   29.9227  -31.2636    0.0000 C   0  0  0  0  0  0  0  0  0  0  0  0
   30.6307  -30.8539    0.0000 C   0  0  0  0  0  0  0  0  0  0  0  0
   30.6268  -30.0325    0.0000 C   0  0  0  0  0  0  0  0  0  0  0  0
   29.9187  -29.6288    0.0000 C   0  0  0  0  0  0  0  0  0  0  0  0
   24.9704  -28.4078    0.0000 C   0  0  0  0  0  0  0  0  0  0  0  0
   24.9702  -27.5907    0.0000 N   0  0  0  0  0  0  0  0  0  0  0  0
   25.6370  -27.1114    0.0000 C   0  0  0  0  0  0  0  0  0  0  0  0
   25.3843  -26.3342    0.0000 N   0  0  0  0  0  0  0  0  0  0  0  0
   24.5670  -26.3344    0.0000 N   0  0  0  0  0  0  0  0  0  0  0  0
   24.3148  -27.1117    0.0000 C   0  0  0  0  0  0  0  0  0  0  0  0
   23.5373  -27.3633    0.0000 C   0  0  0  0  0  0  0  0  0  0  0  0
   23.3665  -28.1624    0.0000 C   0  0  0  0  0  0  0  0  0  0  0  0
   23.9731  -28.7100    0.0000 C   0  0  0  0  0  0  0  0  0  0  0  0
   23.8023  -29.5091    0.0000 C   0  0  0  0  0  0  0  0  0  0  0  0
   29.9081  -28.8106    0.0000 C   0  0  0  0  0  0  0  0  0  0  0  0
   26.4136  -27.3658    0.0000 S   0  0  0  0  0  0  0  0  0  0  0  0
   27.0222  -26.8205    0.0000 C   0  0  0  0  0  0  0  0  0  0  0  0
   30.5601  -28.3203    0.0000 N   0  0  0  0  0  0  0  0  0  0  0  0
   30.2971  -27.5455    0.0000 N   0  0  0  0  0  0  0  0  0  0  0  0
   29.4789  -27.5561    0.0000 N   0  0  0  0  0  0  0  0  0  0  0  0
   29.2363  -28.3375    0.0000 N   0  0  0  0  0  0  0  0  0  0  0  0
   26.8543  -26.0207    0.0000 C   0  0  0  0  0  0  0  0  0  0  0  0
   27.4652  -25.4804    0.0000 C   0  0  0  0  0  0  0  0  0  0  0  0
   27.2977  -24.6813    0.0000 C   0  0  0  0  0  0  0  0  0  0  0  0
   26.5205  -24.4262    0.0000 C   0  0  0  0  0  0  0  0  0  0  0  0
   25.9104  -24.9763    0.0000 C   0  0  0  0  0  0  0  0  0  0  0  0
   26.0810  -25.7733    0.0000 C   0  0  0  0  0  0  0  0  0  0  0  0
   28.2409  -25.7375    0.0000 C   0  0  0  0  0  0  0  0  0  0  0  0
  1  2  2  0
  2  3  1  0
  3  4  2  0
  4  5  1  0
  5  6  2  0
  6  1  1  0
  4  7  1  0
  7  8  1  0
  8  9  1  0
  8 10  2  0
  9 11  2  0
 11 12  1  0
 12 13  2  0
 13 14  1  0
 14 15  2  0
 15  9  1  0
  1 16  1  0
 16 17  1  0
 17 18  1  0
 18 19  2  0
 19 20  1  0
 20 21  2  0
 21 17  1  0
 21 22  1  0
 22 23  1  0
 23 24  1  0
 24 25  1  0
 15 26  1  0
 18 27  1  0
 27 28  1  0
 26 29  2  0
 29 30  1  0
 30 31  2  0
 31 32  1  0
 32 26  1  0
 28 33  1  0
 33 34  2  0
 34 35  1  0
 35 36  2  0
 36 37  1  0
 37 38  2  0
 38 33  1  0
 34 39  1  0
M  END
>  <From>  (1) 
www.bindingDB.org

>  <BindingDB Reactant_set_id>  (1) 
51183581

>  <Ligand InChI>  (1) 
InChI=1S/C29H30N8OS/c1-3-4-13-26-31-34-29(39-19-22-10-6-5-9-20(22)2)37(26)18-21-14-16-23(17-15-21)30-28(38)25-12-8-7-11-24(25)27-32-35-36-33-27/h5-12,14-17H,3-4,13,18-19H2,1-2H3,(H,30,38)(H,32,33,35,36)

>  <Ligand InChI Key>  (1) 
ORILTBUEVGYFCF-UHFFFAOYSA-N

>  <BindingDB MonomerID>  (1) 
50486765

>  <BindingDB Ligand Name>  (1) 
CHEMBL2237590

>  <Target Name>  (1) 
Type-1 angiotensin II receptor

>  <Target Source Organism According to Curator or DataSource>  (1) 
Oryctolagus cuniculus

>  <Ki (nM)>  (1) 


>  <IC50 (nM)>  (1) 
 17

>  <Kd (nM)>  (1) 


>  <EC50 (nM)>  (1) 


>  <kon (M-1-s-1)>  (1) 


>  <koff (s-1)>  (1) 


>  <pH>  (1) 


>  <Temp C>  (1) 


>  <Curation/DataSource>  (1) 
ChEMBL

>  <Article DOI>  (1) 
10.1007/s00044-011-9756-4

>  <BindingDB Entry DOI>  (1) 
10.7270/Q2833VXQ

>  <PMID>  (1) 


>  <PubChem AID>  (1) 


>  <Patent Number>  (1) 


>  <Authors>  (1) 
n/a

>  <Institution>  (1) 
n/a

>  <Link to Ligand in BindingDB>  (1) 
http://www.bindingdb.org/bind/chemsearch/marvin/MolStructure.jsp?monomerid=50486765

>  <Link to Ligand-Target Pair in BindingDB>  (1) 
http://www.bindingdb.org/jsp/dbsearch/PrimarySearch_ki.jsp?energyterm=kJ/mole&tag=r21&monomerid=50486765&enzyme=Type-1+angiotensin+II+receptor&column=ki&startPg=0&Increment=50&submit=Search

>  <Ligand HET ID in PDB>  (1) 


>  <PDB ID(s) for Ligand-Target Complex>  (1) 


>  <PubChem CID of Ligand>  (1) 
76311800

>  <PubChem SID of Ligand>  (1) 
433954030

>  <ChEBI ID of Ligand>  (1) 


>  <ChEMBL ID of Ligand>  (1) 


>  <DrugBank ID of Ligand>  (1) 


>  <IUPHAR_GRAC ID of Ligand>  (1) 


>  <KEGG ID of Ligand>  (1) 


>  <ZINC ID of Ligand>  (1) 


>  <Number of Protein Chains in Target (bigger than 1 implies a multichain complex)>  (1) 
1

>  <BindingDB Target Chain Sequence>  (1) 
MMLNSSTEDGIKRIQDDCPKAGRHNYIFVMIPTLYSIIFVVGIFGNSLAVIVIYFYMKLKTVASVFLLNLALADLCFLLTLPLWAVYTAMEYRWPFGNYLCKIASASVSFNLYASVFLLTCLSIDRYLAIVHPMKSRLRRTMLVAKVTCIIIWLLAGLASLPAIIHRNVFFIENTNITVCAFHYESQNSTLPIGLGLTKNILGFLFPFLIILTSYTLIWKALKKAYEIQKNKPRNDDIFKIIMAIVLFFFFSWVPHQIFTFLDVLIQLGVIHDCRIADIVDTAMPITICIAYFNNCLNPLFYGFLGKKFKKYFLQLLKYIPPKAKSHSNLSTKMSTLSYRPSDNVSSSSKKPVPCFEVE

>  <PDB ID(s) of Target Chain>  (1) 
6DO1,6OS0,6OS1,6OS2

>  <UniProt (SwissProt) Recommended Name of Target Chain>  (1) 
Type-1 angiotensin II receptor

>  <UniProt (SwissProt) Entry Name of Target Chain>  (1) 
AGTR1_RABIT

>  <UniProt (SwissProt) Primary ID of Target Chain>  (1) 
P34976

>  <UniProt (SwissProt) Secondary ID(s) of Target Chain>  (1) 


>  <UniProt (SwissProt) Alternative ID(s) of Target Chain>  (1) 


>  <UniProt (TrEMBL) Submitted Name of Target Chain>  (1) 


>  <UniProt (TrEMBL) Entry Name of Target Chain>  (1) 


>  <UniProt (TrEMBL) Primary ID of Target Chain>  (1) 


>  <UniProt (TrEMBL) Secondary ID(s) of Target Chain>  (1) 


>  <UniProt (TrEMBL) Alternative ID(s) of Target Chain>  (1) 


$$$$
