
     RDKit          2D

 44 47  0  0  0  0  0  0  0  0999 V2000
    2.5150    1.9362    0.0000 N   0  0  0  0  0  0  0  0  0  0  0  0
    2.0528    0.6870    0.0000 N   0  0  0  0  0  0  0  0  0  0  0  0
    5.5463   -0.6995    0.0000 S   0  0  0  0  0  0  0  0  0  0  0  0
    2.7399    1.1450    0.0000 C   0  0  0  0  0  0  0  0  0  0  0  0
    1.6906    1.9695    0.0000 N   0  0  0  0  0  0  0  0  0  0  0  0
    5.5381    0.1249    0.0000 N   0  0  0  0  0  0  0  0  0  0  0  0
    1.4033    1.1992    0.0000 C   0  0  0  0  0  0  0  0  0  0  0  0
    6.2501    0.5454    0.0000 C   0  0  0  0  0  0  0  0  0  0  0  0
    2.7232    3.3561    0.0000 C   0  0  0  0  0  0  0  0  0  0  0  0
    3.0272    2.5858    0.0000 C   0  0  0  0  0  0  0  0  0  0  0  0
    1.9029    3.4560    0.0000 C   0  0  0  0  0  0  0  0  0  0  0  0
    5.5131   -1.5240    0.0000 C   0  0  0  0  0  0  0  0  0  0  0  0
    6.9704    0.1374    0.0000 C   0  0  0  0  0  0  0  0  0  0  0  0
    4.7885   -1.9029    0.0000 C   0  0  0  0  0  0  0  0  0  0  0  0
    2.0154   -0.1374    0.0000 C   0  0  0  0  0  0  0  0  0  0  0  0
    4.7219   -0.6912    0.0000 O   0  0  0  0  0  0  0  0  0  0  0  0
    6.3708   -0.6995    0.0000 O   0  0  0  0  0  0  0  0  0  0  0  0
    3.5102    0.8577    0.0000 O   0  0  0  0  0  0  0  0  0  0  0  0
    4.0973   -1.4615    0.0000 C   0  0  0  0  0  0  0  0  0  0  0  0
    6.2459    1.3699    0.0000 O   0  0  0  0  0  0  0  0  0  0  0  0
    6.9746   -0.6870    0.0000 O   0  0  0  0  0  0  0  0  0  0  0  0
    1.1617    3.5685    0.0000 F   0  0  0  0  0  0  0  0  0  0  0  0
    1.4532    4.1889    0.0000 F   0  0  0  0  0  0  0  0  0  0  0  0
    1.2659    2.8731    0.0000 F   0  0  0  0  0  0  0  0  0  0  0  0
    3.3645   -1.8405    0.0000 C   0  0  0  0  0  0  0  0  0  0  0  0
    4.1265   -0.6371    0.0000 C   0  0  0  0  0  0  0  0  0  0  0  0
    2.7107   -0.5788    0.0000 C   0  0  0  0  0  0  0  0  0  0  0  0
    7.6824    0.5621    0.0000 C   0  0  0  0  0  0  0  0  0  0  0  0
    0.6121    0.9827    0.0000 C   0  0  0  0  0  0  0  0  0  0  0  0
    3.2271    3.9932    0.0000 C   0  0  0  0  0  0  0  0  0  0  0  0
    2.6649   -1.4033    0.0000 C   0  0  0  0  0  0  0  0  0  0  0  0
    3.4352   -0.1916    0.0000 C   0  0  0  0  0  0  0  0  0  0  0  0
    3.8392    2.4609    0.0000 C   0  0  0  0  0  0  0  0  0  0  0  0
    6.2126   -1.9612    0.0000 C   0  0  0  0  0  0  0  0  0  0  0  0
    4.7511   -2.7274    0.0000 C   0  0  0  0  0  0  0  0  0  0  0  0
    8.4861    0.2623    0.0000 C   0  0  0  0  0  0  0  0  0  0  0  0
    7.8116    1.4116    0.0000 C   0  0  0  0  0  0  0  0  0  0  0  0
    0.0167    1.5573    0.0000 C   0  0  0  0  0  0  0  0  0  0  0  0
   -0.7703    1.3366    0.0000 C   0  0  0  0  0  0  0  0  0  0  0  0
    4.0473    3.8807    0.0000 C   0  0  0  0  0  0  0  0  0  0  0  0
    4.3513    3.1063    0.0000 C   0  0  0  0  0  0  0  0  0  0  0  0
    6.1751   -2.7899    0.0000 C   0  0  0  0  0  0  0  0  0  0  0  0
    5.4464   -3.1729    0.0000 C   0  0  0  0  0  0  0  0  0  0  0  0
   -1.3616    1.9195    0.0000 C   0  0  0  0  0  0  0  0  0  0  0  0
  2  4  1  0
  3 12  1  0
  4  1  1  0
  5  1  1  0
  6  3  1  0
  7  5  2  0
  8  6  1  0
  9 10  2  0
 10  1  1  0
 11  9  1  0
 12 14  2  0
 13  8  1  0
 14 19  1  0
 15  2  1  0
 16  3  2  0
 17  3  2  0
 18  4  2  0
 19 26  2  0
 20  8  2  0
 21 13  2  0
 22 11  1  0
 23 11  1  0
 24 11  1  0
 25 31  2  0
 26 32  1  0
 27 15  1  0
 28 13  1  0
 29  7  1  0
 30  9  1  0
 31 27  1  0
 32 27  2  0
 33 10  1  0
 34 12  1  0
 35 14  1  0
 36 28  1  0
 37 28  1  0
 38 29  1  0
 39 38  1  0
 40 41  1  0
 41 33  2  0
 42 43  1  0
 43 35  2  0
 44 39  1  0
  2  7  1  0
 40 30  2  0
 19 25  1  0
 34 42  2  0
M  END
>  <From>  (1) 
www.bindingDB.org

>  <BindingDB Reactant_set_id>  (1) 
50002528

>  <Ligand InChI>  (1) 
InChI=1S/C31H31F3N4O5S/c1-4-5-14-27-35-38(25-12-8-7-11-24(25)31(32,33)34)30(41)37(27)19-21-15-17-22(18-16-21)23-10-6-9-13-26(23)44(42,43)36-29(40)28(39)20(2)3/h6-13,15-18,20H,4-5,14,19H2,1-3H3,(H,36,40)

>  <Ligand InChI Key>  (1) 
QUPLREUGICSPAY-UHFFFAOYSA-N

>  <BindingDB MonomerID>  (1) 
50282213

>  <BindingDB Ligand Name>  (1) 
4'-[3-Butyl-5-oxo-1-(2-trifluoromethyl-phenyl)-1,5-dihydro-[1,2,4]triazol-4-ylmethyl]-biphenyl-2-sulfonic acid (3-methyl-2-oxo-butyryl)-amide::CHEMBL278305

>  <Target Name>  (1) 
Type-1 angiotensin II receptor

>  <Target Source Organism According to Curator or DataSource>  (1) 
Oryctolagus cuniculus

>  <Ki (nM)>  (1) 


>  <IC50 (nM)>  (1) 
 0.800000

>  <Kd (nM)>  (1) 


>  <EC50 (nM)>  (1) 


>  <kon (M-1-s-1)>  (1) 


>  <koff (s-1)>  (1) 


>  <pH>  (1) 


>  <Temp C>  (1) 


>  <Curation/DataSource>  (1) 
ChEMBL

>  <Article DOI>  (1) 
10.1016/S0960-894X(01)81132-X

>  <BindingDB Entry DOI>  (1) 
10.7270/Q2057FT4

>  <PMID>  (1) 


>  <PubChem AID>  (1) 


>  <Patent Number>  (1) 


>  <Authors>  (1) 
Chang, LL; Ashton, WT; Flanagan, KL; Naylor, EM; Chakravarty, PK; Patchett, AA; Greenlee, WJ; Bendesky, RJ; Chen, TB; Faust, KA; Kling, PJ; Schaffer, LW; Schorn, TW; Zingaro, GJ; Chang, RS; Lotti, VJ; Kivlighn, SD; Siegl, PK

>  <Institution>  (1) 
TBA

>  <Link to Ligand in BindingDB>  (1) 
http://www.bindingdb.org/bind/chemsearch/marvin/MolStructure.jsp?monomerid=50282213

>  <Link to Ligand-Target Pair in BindingDB>  (1) 
http://www.bindingdb.org/jsp/dbsearch/PrimarySearch_ki.jsp?energyterm=kJ/mole&tag=r21&monomerid=50282213&enzyme=Type-1+angiotensin+II+receptor&column=ki&startPg=0&Increment=50&submit=Search

>  <Ligand HET ID in PDB>  (1) 


>  <PDB ID(s) for Ligand-Target Complex>  (1) 


>  <PubChem CID of Ligand>  (1) 
44272246

>  <PubChem SID of Ligand>  (1) 
104123887

>  <ChEBI ID of Ligand>  (1) 


>  <ChEMBL ID of Ligand>  (1) 
CHEMBL278305

>  <DrugBank ID of Ligand>  (1) 


>  <IUPHAR_GRAC ID of Ligand>  (1) 


>  <KEGG ID of Ligand>  (1) 


>  <ZINC ID of Ligand>  (1) 
ZINC28222174

>  <Number of Protein Chains in Target (bigger than 1 implies a multichain complex)>  (1) 
1

>  <BindingDB Target Chain Sequence>  (1) 
MMLNSSTEDGIKRIQDDCPKAGRHNYIFVMIPTLYSIIFVVGIFGNSLAVIVIYFYMKLKTVASVFLLNLALADLCFLLTLPLWAVYTAMEYRWPFGNYLCKIASASVSFNLYASVFLLTCLSIDRYLAIVHPMKSRLRRTMLVAKVTCIIIWLLAGLASLPAIIHRNVFFIENTNITVCAFHYESQNSTLPIGLGLTKNILGFLFPFLIILTSYTLIWKALKKAYEIQKNKPRNDDIFKIIMAIVLFFFFSWVPHQIFTFLDVLIQLGVIHDCRIADIVDTAMPITICIAYFNNCLNPLFYGFLGKKFKKYFLQLLKYIPPKAKSHSNLSTKMSTLSYRPSDNVSSSSKKPVPCFEVE

>  <PDB ID(s) of Target Chain>  (1) 
6DO1,6OS0,6OS1,6OS2

>  <UniProt (SwissProt) Recommended Name of Target Chain>  (1) 
Type-1 angiotensin II receptor

>  <UniProt (SwissProt) Entry Name of Target Chain>  (1) 
AGTR1_RABIT

>  <UniProt (SwissProt) Primary ID of Target Chain>  (1) 
P34976

>  <UniProt (SwissProt) Secondary ID(s) of Target Chain>  (1) 


>  <UniProt (SwissProt) Alternative ID(s) of Target Chain>  (1) 


>  <UniProt (TrEMBL) Submitted Name of Target Chain>  (1) 


>  <UniProt (TrEMBL) Entry Name of Target Chain>  (1) 


>  <UniProt (TrEMBL) Primary ID of Target Chain>  (1) 


>  <UniProt (TrEMBL) Secondary ID(s) of Target Chain>  (1) 


>  <UniProt (TrEMBL) Alternative ID(s) of Target Chain>  (1) 


$$$$
