
     RDKit          2D

 33 38  0  0  0  0  0  0  0  0999 V2000
   -6.4752   -2.0680    0.0000 C   0  0  0  0  0  0  0  0  0  0  0  0
   -6.4774   -1.2447    0.0000 C   0  0  0  0  0  0  0  0  0  0  0  0
   -5.7685   -2.4943    0.0000 C   0  0  0  0  0  0  0  0  0  0  0  0
   -5.7510   -0.8502    0.0000 C   0  0  0  0  0  0  0  0  0  0  0  0
   -5.7446   -0.0197    0.0000 C   0  0  0  0  0  0  0  0  0  0  0  0
   -5.0402   -1.2690    0.0000 C   0  0  0  0  0  0  0  0  0  0  0  0
   -5.0187    0.3821    0.0000 C   0  0  0  0  0  0  0  0  0  0  0  0
   -7.2077   -2.4698    0.0000 C   0  0  0  0  0  0  0  0  0  0  0  0
   -7.1875   -0.8187    0.0000 C   0  0  0  0  0  0  0  0  0  0  0  0
   -7.9136   -2.0509    0.0000 C   0  0  0  0  0  0  0  0  0  0  0  0
   -7.8974   -1.2267    0.0000 C   0  0  0  0  0  0  0  0  0  0  0  0
   -4.3121   -0.0440    0.0000 C   0  0  0  0  0  0  0  0  0  0  0  0
   -4.3236   -0.8603    0.0000 C   0  0  0  0  0  0  0  0  0  0  0  0
   -3.5508   -1.1235    0.0000 C   0  0  0  0  0  0  0  0  0  0  0  0
   -3.0617   -0.4698    0.0000 C   0  0  0  0  0  0  0  0  0  0  0  0
   -3.5315    0.1977    0.0000 C   0  0  0  0  0  0  0  0  0  0  0  0
   -3.2673    0.9793    0.0000 N   0  0  0  0  0  0  0  0  0  0  0  0
   -3.2499    2.3100    0.0000 N   0  0  0  0  0  0  0  0  0  0  0  0
   -2.4820    1.2265    0.0000 C   0  0  0  0  0  0  0  0  0  0  0  0
   -3.7410    1.6516    0.0000 C   0  0  0  0  0  0  0  0  0  0  0  0
   -2.4636    2.0433    0.0000 C   0  0  0  0  0  0  0  0  0  0  0  0
   -1.0584    1.2025    0.0000 C   0  0  0  0  0  0  0  0  0  0  0  0
   -1.7762    0.7993    0.0000 N   0  0  0  0  0  0  0  0  0  0  0  0
   -1.7566    2.4530    0.0000 C   0  0  0  0  0  0  0  0  0  0  0  0
   -1.0465    2.0330    0.0000 C   0  0  0  0  0  0  0  0  0  0  0  0
   -4.5642    1.6593    0.0000 C   0  0  0  0  0  0  0  0  0  0  0  0
   -1.7489    3.2762    0.0000 C   0  0  0  0  0  0  0  0  0  0  0  0
   -4.9611    2.3878    0.0000 C   0  0  0  0  0  0  0  0  0  0  0  0
   -5.7823   -3.3186    0.0000 N   0  0  0  0  0  0  0  0  0  0  0  0
   -5.0033   -3.5902    0.0000 N   0  0  0  0  0  0  0  0  0  0  0  0
   -4.5041   -2.9333    0.0000 N   0  0  0  0  0  0  0  0  0  0  0  0
   -4.9746   -2.2555    0.0000 N   0  0  0  0  0  0  0  0  0  0  0  0
   -0.3494    0.7807    0.0000 C   0  0  0  0  0  0  0  0  0  0  0  0
 16 15  1  0
 16 12  1  0
  5  7  2  0
  6 13  1  0
  7 12  1  0
  8  1  2  0
  9  2  2  0
 10 11  2  0
 11  9  1  0
  6  4  2  0
  8 10  1  0
 12 13  2  0
  1  2  1  0
 17 19  1  0
 18 21  1  0
 19 23  2  0
 20 17  1  0
 21 24  2  0
 23 22  1  0
 24 25  1  0
 25 22  2  0
 26 20  1  0
 27 24  1  0
 28 26  1  0
 19 21  1  0
 18 20  2  0
 16 17  1  1
 31 32  1  0
  2  4  1  0
 29 30  1  0
  3  1  1  0
  4  5  1  0
 13 14  1  0
  3 29  1  0
 30 31  2  0
 32  3  2  0
 14 15  1  0
 22 33  1  0
M  END
>  <From>  (1) 
www.bindingDB.org

>  <BindingDB Reactant_set_id>  (1) 
50647668

>  <Ligand InChI>  (1) 
InChI=1S/C26H25N7/c1-4-23-28-24-15(2)13-16(3)27-26(24)33(23)22-12-10-18-14-17(9-11-20(18)22)19-7-5-6-8-21(19)25-29-31-32-30-25/h5-9,11,13-14,22H,4,10,12H2,1-3H3,(H,29,30,31,32)/t22-/m0/s1

>  <Ligand InChI Key>  (1) 
PACFDFGGIPMOKL-QFIPXVFZSA-N

>  <BindingDB MonomerID>  (1) 
50347567

>  <BindingDB Ligand Name>  (1) 
CHEMBL1801712

>  <Target Name>  (1) 
Type-1 angiotensin II receptor

>  <Target Source Organism According to Curator or DataSource>  (1) 
Homo sapiens

>  <Ki (nM)>  (1) 


>  <IC50 (nM)>  (1) 
 7.6

>  <Kd (nM)>  (1) 


>  <EC50 (nM)>  (1) 


>  <kon (M-1-s-1)>  (1) 


>  <koff (s-1)>  (1) 


>  <pH>  (1) 


>  <Temp C>  (1) 


>  <Curation/DataSource>  (1) 
ChEMBL

>  <Article DOI>  (1) 
10.1021/jm200409s

>  <BindingDB Entry DOI>  (1) 
10.7270/Q2SB463J

>  <PMID>  (1) 
21557540

>  <PubChem AID>  (1) 


>  <Patent Number>  (1) 


>  <Authors>  (1) 
Casimiro-Garcia, A; Filzen, GF; Flynn, D; Bigge, CF; Chen, J; Davis, JA; Dudley, DA; Edmunds, JJ; Esmaeil, N; Geyer, A; Heemstra, RJ; Jalaie, M; Ohren, JF; Ostroski, R; Ellis, T; Schaum, RP; Stoner, C

>  <Institution>  (1) 
Pfizer Inc

>  <Link to Ligand in BindingDB>  (1) 
http://www.bindingdb.org/bind/chemsearch/marvin/MolStructure.jsp?monomerid=50347567

>  <Link to Ligand-Target Pair in BindingDB>  (1) 
http://www.bindingdb.org/jsp/dbsearch/PrimarySearch_ki.jsp?energyterm=kJ/mole&tag=r21&monomerid=50347567&enzyme=Type-1+angiotensin+II+receptor&column=ki&startPg=0&Increment=50&submit=Search

>  <Ligand HET ID in PDB>  (1) 
HIG

>  <PDB ID(s) for Ligand-Target Complex>  (1) 
3R8A

>  <PubChem CID of Ligand>  (1) 
54178446

>  <PubChem SID of Ligand>  (1) 
136354253

>  <ChEBI ID of Ligand>  (1) 


>  <ChEMBL ID of Ligand>  (1) 
CHEMBL1801712

>  <DrugBank ID of Ligand>  (1) 


>  <IUPHAR_GRAC ID of Ligand>  (1) 


>  <KEGG ID of Ligand>  (1) 


>  <ZINC ID of Ligand>  (1) 
ZINC00837921

>  <Number of Protein Chains in Target (bigger than 1 implies a multichain complex)>  (1) 
1

>  <BindingDB Target Chain Sequence>  (1) 
MILNSSTEDGIKRIQDDCPKAGRHNYIFVMIPTLYSIIFVVGIFGNSLVVIVIYFYMKLKTVASVFLLNLALADLCFLLTLPLWAVYTAMEYRWPFGNYLCKIASASVSFNLYASVFLLTCLSIDRYLAIVHPMKSRLRRTMLVAKVTCIIIWLLAGLASLPAIIHRNVFFIENTNITVCAFHYESQNSTLPIGLGLTKNILGFLFPFLIILTSYTLIWKALKKAYEIQKNKPRNDDIFKIIMAIVLFFFFSWIPHQIFTFLDVLIQLGIIRDCRIADIVDTAMPITICIAYFNNCLNPLFYGFLGKKFKRYFLQLLKYIPPKAKSHSNLSTKMSTLSYRPSDNVSSSTKKPAPCFEVE

>  <PDB ID(s) of Target Chain>  (1) 
6DO1,6OS0,6OS1,6OS2

>  <UniProt (SwissProt) Recommended Name of Target Chain>  (1) 
Type-1 angiotensin II receptor

>  <UniProt (SwissProt) Entry Name of Target Chain>  (1) 
AGTR1_HUMAN

>  <UniProt (SwissProt) Primary ID of Target Chain>  (1) 
P30556

>  <UniProt (SwissProt) Secondary ID(s) of Target Chain>  (1) 
Q13725 Q8TBK4

>  <UniProt (SwissProt) Alternative ID(s) of Target Chain>  (1) 


>  <UniProt (TrEMBL) Submitted Name of Target Chain>  (1) 


>  <UniProt (TrEMBL) Entry Name of Target Chain>  (1) 


>  <UniProt (TrEMBL) Primary ID of Target Chain>  (1) 


>  <UniProt (TrEMBL) Secondary ID(s) of Target Chain>  (1) 


>  <UniProt (TrEMBL) Alternative ID(s) of Target Chain>  (1) 


$$$$
