
     RDKit          2D

 46 50  0  0  0  0  0  0  0  0999 V2000
    2.6698   -1.6844    0.0000 N   0  0  0  0  0  0  0  0  0  0  0  0
    2.2573   -2.9620    0.0000 N   0  0  0  0  0  0  0  0  0  0  0  0
    5.8266   -4.1938    0.0000 S   0  0  0  0  0  0  0  0  0  0  0  0
    2.9277   -2.4750    0.0000 C   0  0  0  0  0  0  0  0  0  0  0  0
    1.8448   -1.6902    0.0000 N   0  0  0  0  0  0  0  0  0  0  0  0
    5.8152   -3.3688    0.0000 N   0  0  0  0  0  0  0  0  0  0  0  0
    1.5870   -2.4750    0.0000 C   0  0  0  0  0  0  0  0  0  0  0  0
    6.5313   -2.9448    0.0000 C   0  0  0  0  0  0  0  0  0  0  0  0
    6.5198   -2.1198    0.0000 C   0  0  0  0  0  0  0  0  0  0  0  0
    2.8188   -0.2808    0.0000 C   0  0  0  0  0  0  0  0  0  0  0  0
    3.1511   -1.0198    0.0000 C   0  0  0  0  0  0  0  0  0  0  0  0
    1.9938   -0.1948    0.0000 C   0  0  0  0  0  0  0  0  0  0  0  0
    5.8495   -1.6386    0.0000 C   0  0  0  0  0  0  0  0  0  0  0  0
    5.8266   -5.0073    0.0000 C   0  0  0  0  0  0  0  0  0  0  0  0
    7.1902   -1.6328    0.0000 O   0  0  0  0  0  0  0  0  0  0  0  0
    6.0902   -0.8652    0.0000 C   0  0  0  0  0  0  0  0  0  0  0  0
    6.9323   -0.8480    0.0000 C   0  0  0  0  0  0  0  0  0  0  0  0
    5.1105   -5.4313    0.0000 C   0  0  0  0  0  0  0  0  0  0  0  0
    2.2573   -3.7870    0.0000 C   0  0  0  0  0  0  0  0  0  0  0  0
    5.0016   -4.1938    0.0000 O   0  0  0  0  0  0  0  0  0  0  0  0
    6.6516   -4.1938    0.0000 O   0  0  0  0  0  0  0  0  0  0  0  0
    3.7125   -2.7214    0.0000 O   0  0  0  0  0  0  0  0  0  0  0  0
    7.2417   -3.3573    0.0000 O   0  0  0  0  0  0  0  0  0  0  0  0
    4.4000   -5.0188    0.0000 C   0  0  0  0  0  0  0  0  0  0  0  0
    1.5183    0.5270    0.0000 F   0  0  0  0  0  0  0  0  0  0  0  0
    1.3808   -0.8078    0.0000 F   0  0  0  0  0  0  0  0  0  0  0  0
    1.2433   -0.1203    0.0000 F   0  0  0  0  0  0  0  0  0  0  0  0
    3.6839   -5.4313    0.0000 C   0  0  0  0  0  0  0  0  0  0  0  0
    4.4000   -4.1823    0.0000 C   0  0  0  0  0  0  0  0  0  0  0  0
    2.9734   -4.1938    0.0000 C   0  0  0  0  0  0  0  0  0  0  0  0
    0.8078   -2.7214    0.0000 C   0  0  0  0  0  0  0  0  0  0  0  0
    3.3000    0.3895    0.0000 C   0  0  0  0  0  0  0  0  0  0  0  0
    2.9734   -5.0188    0.0000 C   0  0  0  0  0  0  0  0  0  0  0  0
    3.6839   -3.7813    0.0000 C   0  0  0  0  0  0  0  0  0  0  0  0
    5.0761   -1.9078    0.0000 C   0  0  0  0  0  0  0  0  0  0  0  0
    3.9703   -1.1058    0.0000 C   0  0  0  0  0  0  0  0  0  0  0  0
    6.5370   -5.4198    0.0000 C   0  0  0  0  0  0  0  0  0  0  0  0
    5.1105   -6.2563    0.0000 C   0  0  0  0  0  0  0  0  0  0  0  0
    7.4078   -0.1777    0.0000 C   0  0  0  0  0  0  0  0  0  0  0  0
    0.1948   -2.1714    0.0000 C   0  0  0  0  0  0  0  0  0  0  0  0
   -0.5958   -2.4292    0.0000 C   0  0  0  0  0  0  0  0  0  0  0  0
    4.1136    0.3036    0.0000 C   0  0  0  0  0  0  0  0  0  0  0  0
    4.4516   -0.4527    0.0000 C   0  0  0  0  0  0  0  0  0  0  0  0
    6.5484   -6.2448    0.0000 C   0  0  0  0  0  0  0  0  0  0  0  0
    5.8323   -6.6688    0.0000 C   0  0  0  0  0  0  0  0  0  0  0  0
   -1.2031   -1.8792    0.0000 C   0  0  0  0  0  0  0  0  0  0  0  0
  2  4  1  0
  3 14  1  0
  4  1  1  0
  5  1  1  0
  6  3  1  0
  7  5  2  0
  8  6  1  0
  9  8  1  0
 10 11  2  0
 11  1  1  0
 12 10  1  0
 13  9  2  0
 14 18  1  0
 15  9  1  0
 16 13  1  0
 17 15  1  0
 18 24  1  0
 19  2  1  0
 20  3  2  0
 21  3  2  0
 22  4  2  0
 23  8  2  0
 24 29  2  0
 25 12  1  0
 26 12  1  0
 27 12  1  0
 28 33  2  0
 29 34  1  0
 30 19  1  0
 31  7  1  0
 32 10  1  0
 33 30  1  0
 34 30  2  0
 35 13  1  0
 36 11  1  0
 37 14  2  0
 38 18  2  0
 39 17  1  0
 40 31  1  0
 41 40  1  0
 42 43  1  0
 43 36  2  0
 44 45  2  0
 45 38  1  0
 46 41  1  0
  2  7  1  0
 42 32  2  0
 24 28  1  0
 44 37  1  0
 16 17  2  0
M  END
>  <From>  (1) 
www.bindingDB.org

>  <BindingDB Reactant_set_id>  (1) 
50036555

>  <Ligand InChI>  (1) 
InChI=1S/C33H31F3N4O5S/c1-4-5-14-29-37-40(27-12-8-7-11-26(27)33(34,35)36)32(42)39(29)20-23-15-17-24(18-16-23)25-10-6-9-13-28(25)46(43,44)38-31(41)30-21(2)19-22(3)45-30/h6-13,15-19H,4-5,14,20H2,1-3H3,(H,38,41)

>  <Ligand InChI Key>  (1) 
AOOWLKVDPNXOHY-UHFFFAOYSA-N

>  <BindingDB MonomerID>  (1) 
50039899

>  <BindingDB Ligand Name>  (1) 
4'-[3-Butyl-5-oxo-1-(2-trifluoromethyl-phenyl)-1,5-dihydro-[1,2,4]triazol-4-ylmethyl]-biphenyl-2-sulfonic acid (3,5-dimethyl-furan-2-carbonyl)-amide::CHEMBL329693

>  <Target Name>  (1) 
Type-1 angiotensin II receptor

>  <Target Source Organism According to Curator or DataSource>  (1) 
Oryctolagus cuniculus

>  <Ki (nM)>  (1) 


>  <IC50 (nM)>  (1) 
 0.220000

>  <Kd (nM)>  (1) 


>  <EC50 (nM)>  (1) 


>  <kon (M-1-s-1)>  (1) 


>  <koff (s-1)>  (1) 


>  <pH>  (1) 


>  <Temp C>  (1) 


>  <Curation/DataSource>  (1) 
ChEMBL

>  <Article DOI>  (1) 
10.1021/jm00043a020

>  <BindingDB Entry DOI>  (1) 
10.7270/Q2M907QM

>  <PMID>  (1) 
8064808

>  <PubChem AID>  (1) 


>  <Patent Number>  (1) 


>  <Authors>  (1) 
Ashton, WT; Chang, LL; Flanagan, KL; Hutchins, SM; Naylor, EM; Chakravarty, PK; Patchett, AA; Greenlee, WJ; Chen, TB; Faust, KA

>  <Institution>  (1) 
Merck Research Laboratories

>  <Link to Ligand in BindingDB>  (1) 
http://www.bindingdb.org/bind/chemsearch/marvin/MolStructure.jsp?monomerid=50039899

>  <Link to Ligand-Target Pair in BindingDB>  (1) 
http://www.bindingdb.org/jsp/dbsearch/PrimarySearch_ki.jsp?energyterm=kJ/mole&tag=r21&monomerid=50039899&enzyme=Type-1+angiotensin+II+receptor&column=ki&startPg=0&Increment=50&submit=Search

>  <Ligand HET ID in PDB>  (1) 


>  <PDB ID(s) for Ligand-Target Complex>  (1) 


>  <PubChem CID of Ligand>  (1) 
10326942

>  <PubChem SID of Ligand>  (1) 
103947094

>  <ChEBI ID of Ligand>  (1) 


>  <ChEMBL ID of Ligand>  (1) 
CHEMBL329693

>  <DrugBank ID of Ligand>  (1) 


>  <IUPHAR_GRAC ID of Ligand>  (1) 


>  <KEGG ID of Ligand>  (1) 


>  <ZINC ID of Ligand>  (1) 
ZINC26719317

>  <Number of Protein Chains in Target (bigger than 1 implies a multichain complex)>  (1) 
1

>  <BindingDB Target Chain Sequence>  (1) 
MMLNSSTEDGIKRIQDDCPKAGRHNYIFVMIPTLYSIIFVVGIFGNSLAVIVIYFYMKLKTVASVFLLNLALADLCFLLTLPLWAVYTAMEYRWPFGNYLCKIASASVSFNLYASVFLLTCLSIDRYLAIVHPMKSRLRRTMLVAKVTCIIIWLLAGLASLPAIIHRNVFFIENTNITVCAFHYESQNSTLPIGLGLTKNILGFLFPFLIILTSYTLIWKALKKAYEIQKNKPRNDDIFKIIMAIVLFFFFSWVPHQIFTFLDVLIQLGVIHDCRIADIVDTAMPITICIAYFNNCLNPLFYGFLGKKFKKYFLQLLKYIPPKAKSHSNLSTKMSTLSYRPSDNVSSSSKKPVPCFEVE

>  <PDB ID(s) of Target Chain>  (1) 
6DO1,6OS0,6OS1,6OS2

>  <UniProt (SwissProt) Recommended Name of Target Chain>  (1) 
Type-1 angiotensin II receptor

>  <UniProt (SwissProt) Entry Name of Target Chain>  (1) 
AGTR1_RABIT

>  <UniProt (SwissProt) Primary ID of Target Chain>  (1) 
P34976

>  <UniProt (SwissProt) Secondary ID(s) of Target Chain>  (1) 


>  <UniProt (SwissProt) Alternative ID(s) of Target Chain>  (1) 


>  <UniProt (TrEMBL) Submitted Name of Target Chain>  (1) 


>  <UniProt (TrEMBL) Entry Name of Target Chain>  (1) 


>  <UniProt (TrEMBL) Primary ID of Target Chain>  (1) 


>  <UniProt (TrEMBL) Secondary ID(s) of Target Chain>  (1) 


>  <UniProt (TrEMBL) Alternative ID(s) of Target Chain>  (1) 


$$$$
