
     RDKit          2D

 50 54  0  0  0  0  0  0  0  0999 V2000
    8.8252  -11.3226    0.0000 C   0  0  0  0  0  0  0  0  0  0  0  0
    9.6484  -11.3237    0.0000 C   0  0  0  0  0  0  0  0  0  0  0  0
   10.0592  -10.6126    0.0000 C   0  0  0  0  0  0  0  0  0  0  0  0
    9.6480   -9.8997    0.0000 C   0  0  0  0  0  0  0  0  0  0  0  0
    8.8216   -9.9025    0.0000 C   0  0  0  0  0  0  0  0  0  0  0  0
    8.4145  -10.6143    0.0000 C   0  0  0  0  0  0  0  0  0  0  0  0
   10.8804  -10.6102    0.0000 C   0  0  0  0  0  0  0  0  0  0  0  0
   11.2922  -11.3265    0.0000 C   0  0  0  0  0  0  0  0  0  0  0  0
   12.1165  -11.3270    0.0000 C   0  0  0  0  0  0  0  0  0  0  0  0
   12.5300  -10.6121    0.0000 C   0  0  0  0  0  0  0  0  0  0  0  0
   12.1132   -9.8951    0.0000 C   0  0  0  0  0  0  0  0  0  0  0  0
   11.2903   -9.8981    0.0000 C   0  0  0  0  0  0  0  0  0  0  0  0
    7.5895  -10.6168    0.0000 C   0  0  0  0  0  0  0  0  0  0  0  0
    7.1748   -9.9036    0.0000 N   0  0  0  0  0  0  0  0  0  0  0  0
    7.5074   -9.1531    0.0000 C   0  0  0  0  0  0  0  0  0  0  0  0
    6.8927   -8.6029    0.0000 N   0  0  0  0  0  0  0  0  0  0  0  0
    6.1793   -9.0175    0.0000 N   0  0  0  0  0  0  0  0  0  0  0  0
    6.3534   -9.8240    0.0000 C   0  0  0  0  0  0  0  0  0  0  0  0
    5.8048  -10.4403    0.0000 C   0  0  0  0  0  0  0  0  0  0  0  0
    4.9969  -10.2733    0.0000 C   0  0  0  0  0  0  0  0  0  0  0  0
    4.4483  -10.8895    0.0000 C   0  0  0  0  0  0  0  0  0  0  0  0
    3.6404  -10.7225    0.0000 C   0  0  0  0  0  0  0  0  0  0  0  0
    8.3140   -8.9797    0.0000 O   0  0  0  0  0  0  0  0  0  0  0  0
   10.8760   -9.1846    0.0000 S   0  0  0  0  0  0  0  0  0  0  0  0
   11.2867   -8.4691    0.0000 N   0  0  0  0  0  0  0  0  0  0  0  0
   10.1587   -9.5920    0.0000 O   0  0  0  0  0  0  0  0  0  0  0  0
   10.1587   -8.7711    0.0000 O   0  0  0  0  0  0  0  0  0  0  0  0
   12.1117   -8.4670    0.0000 C   0  0  0  0  0  0  0  0  0  0  0  0
   12.5261   -9.1805    0.0000 O   0  0  0  0  0  0  0  0  0  0  0  0
    6.8882   -7.7778    0.0000 C   0  0  0  0  0  0  0  0  0  0  0  0
    7.6010   -7.3656    0.0000 C   0  0  0  0  0  0  0  0  0  0  0  0
    7.5966   -6.5412    0.0000 C   0  0  0  0  0  0  0  0  0  0  0  0
    6.8793   -6.1319    0.0000 C   0  0  0  0  0  0  0  0  0  0  0  0
    6.1648   -6.5529    0.0000 C   0  0  0  0  0  0  0  0  0  0  0  0
    6.1726   -7.3759    0.0000 C   0  0  0  0  0  0  0  0  0  0  0  0
   12.5212   -7.7541    0.0000 C   0  0  0  0  0  0  0  0  0  0  0  0
   13.3474   -7.7534    0.0000 C   0  0  0  0  0  0  0  0  0  0  0  0
   13.7580   -7.0387    0.0000 C   0  0  0  0  0  0  0  0  0  0  0  0
   13.3436   -6.3244    0.0000 C   0  0  0  0  0  0  0  0  0  0  0  0
   12.5144   -6.3291    0.0000 C   0  0  0  0  0  0  0  0  0  0  0  0
   12.1074   -7.0443    0.0000 C   0  0  0  0  0  0  0  0  0  0  0  0
   11.2825   -7.0486    0.0000 Cl  0  0  0  0  0  0  0  0  0  0  0  0
    5.4626   -7.7959    0.0000 C   0  0  0  0  0  0  0  0  0  0  0  0
    8.3090   -6.1251    0.0000 N   0  0  0  0  0  0  0  0  0  0  0  0
    8.3048   -5.3000    0.0000 C   0  0  0  0  0  0  0  0  0  0  0  0
    9.0171   -4.8839    0.0000 C   0  0  0  0  0  0  0  0  0  0  0  0
    9.0104   -4.0634    0.0000 C   0  0  0  0  0  0  0  0  0  0  0  0
    7.5882   -4.8913    0.0000 O   0  0  0  0  0  0  0  0  0  0  0  0
    9.7215   -3.6450    0.0000 C   0  0  0  0  0  0  0  0  0  0  0  0
    9.7148   -2.8201    0.0000 C   0  0  0  0  0  0  0  0  0  0  0  0
  1  2  2  0
  2  3  1  0
  3  4  2  0
  4  5  1  0
  5  6  2  0
  6  1  1  0
  7  8  2  0
  8  9  1  0
  9 10  2  0
 10 11  1  0
 11 12  2  0
 12  7  1  0
  3  7  1  0
  6 13  1  0
 13 14  1  0
 14 15  1  0
 15 16  1  0
 16 17  1  0
 17 18  2  0
 18 14  1  0
 18 19  1  0
 19 20  1  0
 20 21  1  0
 21 22  1  0
 15 23  2  0
 12 24  1  0
 24 25  1  0
 24 26  2  0
 24 27  2  0
 25 28  1  0
 28 29  2  0
 16 30  1  0
 30 31  2  0
 31 32  1  0
 32 33  2  0
 33 34  1  0
 34 35  2  0
 35 30  1  0
 36 37  2  0
 37 38  1  0
 38 39  2  0
 39 40  1  0
 40 41  2  0
 41 36  1  0
 28 36  1  0
 41 42  1  0
 35 43  1  0
 32 44  1  0
 44 45  1  0
 45 46  1  0
 47 46  1  0
 45 48  2  0
 47 49  1  0
 49 50  1  0
M  END
>  <From>  (1) 
www.bindingDB.org

>  <BindingDB Reactant_set_id>  (1) 
51075701

>  <Ligand InChI>  (1) 
InChI=1S/C38H40ClN5O5S/c1-4-6-16-35-41-44(33-24-29(23-18-26(33)3)40-36(45)17-7-5-2)38(47)43(35)25-27-19-21-28(22-20-27)30-12-9-11-15-34(30)50(48,49)42-37(46)31-13-8-10-14-32(31)39/h8-15,18-24H,4-7,16-17,25H2,1-3H3,(H,40,45)(H,42,46)

>  <Ligand InChI Key>  (1) 
RINFMAFDHJWULG-UHFFFAOYSA-N

>  <BindingDB MonomerID>  (1) 
50440003

>  <BindingDB Ligand Name>  (1) 
CHEMBL2425138

>  <Target Name>  (1) 
Type-1 angiotensin II receptor

>  <Target Source Organism According to Curator or DataSource>  (1) 
Oryctolagus cuniculus

>  <Ki (nM)>  (1) 


>  <IC50 (nM)>  (1) 
 24

>  <Kd (nM)>  (1) 


>  <EC50 (nM)>  (1) 


>  <kon (M-1-s-1)>  (1) 


>  <koff (s-1)>  (1) 


>  <pH>  (1) 


>  <Temp C>  (1) 


>  <Curation/DataSource>  (1) 
ChEMBL

>  <Article DOI>  (1) 
10.1007/s00044-013-0831-x

>  <BindingDB Entry DOI>  (1) 
10.7270/Q2C82BRJ

>  <PMID>  (1) 


>  <PubChem AID>  (1) 


>  <Patent Number>  (1) 


>  <Authors>  (1) 
n/a

>  <Institution>  (1) 
n/a

>  <Link to Ligand in BindingDB>  (1) 
http://www.bindingdb.org/bind/chemsearch/marvin/MolStructure.jsp?monomerid=50440003

>  <Link to Ligand-Target Pair in BindingDB>  (1) 
http://www.bindingdb.org/jsp/dbsearch/PrimarySearch_ki.jsp?energyterm=kJ/mole&tag=r21&monomerid=50440003&enzyme=Type-1+angiotensin+II+receptor&column=ki&startPg=0&Increment=50&submit=Search

>  <Ligand HET ID in PDB>  (1) 


>  <PDB ID(s) for Ligand-Target Complex>  (1) 


>  <PubChem CID of Ligand>  (1) 
73349223

>  <PubChem SID of Ligand>  (1) 
175452320

>  <ChEBI ID of Ligand>  (1) 


>  <ChEMBL ID of Ligand>  (1) 
CHEMBL2425138

>  <DrugBank ID of Ligand>  (1) 


>  <IUPHAR_GRAC ID of Ligand>  (1) 


>  <KEGG ID of Ligand>  (1) 


>  <ZINC ID of Ligand>  (1) 
ZINC96283722

>  <Number of Protein Chains in Target (bigger than 1 implies a multichain complex)>  (1) 
1

>  <BindingDB Target Chain Sequence>  (1) 
MMLNSSTEDGIKRIQDDCPKAGRHNYIFVMIPTLYSIIFVVGIFGNSLAVIVIYFYMKLKTVASVFLLNLALADLCFLLTLPLWAVYTAMEYRWPFGNYLCKIASASVSFNLYASVFLLTCLSIDRYLAIVHPMKSRLRRTMLVAKVTCIIIWLLAGLASLPAIIHRNVFFIENTNITVCAFHYESQNSTLPIGLGLTKNILGFLFPFLIILTSYTLIWKALKKAYEIQKNKPRNDDIFKIIMAIVLFFFFSWVPHQIFTFLDVLIQLGVIHDCRIADIVDTAMPITICIAYFNNCLNPLFYGFLGKKFKKYFLQLLKYIPPKAKSHSNLSTKMSTLSYRPSDNVSSSSKKPVPCFEVE

>  <PDB ID(s) of Target Chain>  (1) 
6DO1,6OS0,6OS1,6OS2

>  <UniProt (SwissProt) Recommended Name of Target Chain>  (1) 
Type-1 angiotensin II receptor

>  <UniProt (SwissProt) Entry Name of Target Chain>  (1) 
AGTR1_RABIT

>  <UniProt (SwissProt) Primary ID of Target Chain>  (1) 
P34976

>  <UniProt (SwissProt) Secondary ID(s) of Target Chain>  (1) 


>  <UniProt (SwissProt) Alternative ID(s) of Target Chain>  (1) 


>  <UniProt (TrEMBL) Submitted Name of Target Chain>  (1) 


>  <UniProt (TrEMBL) Entry Name of Target Chain>  (1) 


>  <UniProt (TrEMBL) Primary ID of Target Chain>  (1) 


>  <UniProt (TrEMBL) Secondary ID(s) of Target Chain>  (1) 


>  <UniProt (TrEMBL) Alternative ID(s) of Target Chain>  (1) 


$$$$
