
     RDKit          2D

 43 49  0  0  1  0  0  0  0  0999 V2000
    5.9839    0.2335    0.0000 N   0  0  0  0  0  0  0  0  0  0  0  0
    5.2667   -0.1793    0.0000 C   0  0  0  0  0  0  0  0  0  0  0  0
    4.5536    0.2460    0.0000 C   0  0  0  0  0  0  0  0  0  0  0  0
    2.3185   -1.0050    0.0000 N   0  0  0  0  0  0  0  0  0  0  0  0
    5.9839    1.0716    0.0000 C   0  0  0  0  0  0  0  0  0  0  0  0
    5.2667    1.4845    0.0000 N   0  0  0  0  0  0  0  0  0  0  0  0
    1.6555    0.1584    0.0000 C   0  0  0  0  0  0  0  0  0  0  0  0
    1.1051   -0.4546    0.0000 C   0  0  0  0  0  0  0  0  0  0  0  0
    1.5137   -1.1676    0.0000 O   0  0  0  0  0  0  0  0  0  0  0  0
    8.1189   -3.4694    0.0000 C   0  0  0  0  0  0  0  0  0  0  0  0
    9.0113   -2.4686    0.0000 N   0  0  0  0  0  0  0  0  0  0  0  0
    2.4144   -0.1793    0.0000 C   0  0  0  0  0  0  0  0  0  0  0  0
    8.2065   -2.6438    0.0000 N   0  0  0  0  0  0  0  0  0  0  0  0
    9.4241   -3.1817    0.0000 N   0  0  0  0  0  0  0  0  0  0  0  0
    4.5536    1.0716    0.0000 C   0  0  0  0  0  0  0  0  0  0  0  0
    3.1275    0.2335    0.0000 C   0  0  0  0  0  0  0  0  0  0  0  0
    1.2385    0.8715    0.0000 C   0  0  0  0  0  0  0  0  0  0  0  0
    3.8405   -0.1793    0.0000 C   0  0  0  0  0  0  0  0  0  0  0  0
    8.8737   -3.7947    0.0000 N   0  0  0  0  0  0  0  0  0  0  0  0
    7.4058   -3.8823    0.0000 C   0  0  0  0  0  0  0  0  0  0  0  0
    0.4295    0.7089    0.0000 O   0  0  0  0  0  0  0  0  0  0  0  0
    6.6928   -3.4694    0.0000 C   0  0  0  0  0  0  0  0  0  0  0  0
    6.6970   -0.1793    0.0000 C   0  0  0  0  0  0  0  0  0  0  0  0
    0.3503   -0.1168    0.0000 C   0  0  0  0  0  0  0  0  0  0  0  0
    5.2667   -1.0050    0.0000 O   0  0  0  0  0  0  0  0  0  0  0  0
    6.6928   -2.6438    0.0000 C   0  0  0  0  0  0  0  0  0  0  0  0
    3.1275    1.0591    0.0000 C   0  0  0  0  0  0  0  0  0  0  0  0
    3.8405    1.4845    0.0000 C   0  0  0  0  0  0  0  0  0  0  0  0
    1.5762    1.6346    0.0000 O   0  0  0  0  0  0  0  0  0  0  0  0
    7.4100   -2.2310    0.0000 C   0  0  0  0  0  0  0  0  0  0  0  0
    5.9797   -2.2310    0.0000 C   0  0  0  0  0  0  0  0  0  0  0  0
    6.6970   -1.0050    0.0000 C   0  0  0  0  0  0  0  0  0  0  0  0
    2.9398   -1.5554    0.0000 C   0  0  0  0  0  0  0  0  0  0  0  0
    6.7053    1.4720    0.0000 C   0  0  0  0  0  0  0  0  0  0  0  0
    7.4100   -1.4053    0.0000 C   0  0  0  0  0  0  0  0  0  0  0  0
    5.9797   -1.4053    0.0000 C   0  0  0  0  0  0  0  0  0  0  0  0
    7.4058   -4.7079    0.0000 C   0  0  0  0  0  0  0  0  0  0  0  0
    5.9797   -3.8823    0.0000 C   0  0  0  0  0  0  0  0  0  0  0  0
    7.4183    1.0591    0.0000 C   0  0  0  0  0  0  0  0  0  0  0  0
    8.1314    1.4720    0.0000 C   0  0  0  0  0  0  0  0  0  0  0  0
    6.6928   -5.1207    0.0000 C   0  0  0  0  0  0  0  0  0  0  0  0
    5.9797   -4.7079    0.0000 C   0  0  0  0  0  0  0  0  0  0  0  0
    8.8445    1.0591    0.0000 C   0  0  0  0  0  0  0  0  0  0  0  0
  2  1  1  0
  3  2  1  0
 12  4  1  0
  5  1  1  0
  6  5  2  0
  7 12  1  0
  7  8  1  0
  9  4  1  0
 10 20  1  0
 11 13  1  0
 12 16  1  6
 13 10  1  0
 14 19  1  0
 15  6  1  0
 16 18  1  0
  7 17  1  1
 18  3  2  0
 19 10  2  0
 20 22  1  0
 21 17  1  0
 22 26  1  0
 23  1  1  0
  8 24  1  1
 25  2  2  0
 26 31  2  0
 27 28  1  0
 28 15  2  0
 29 17  2  0
 30 35  2  0
 31 36  1  0
 32 23  1  0
 33  4  1  0
 34  5  1  0
 35 32  1  0
 36 32  2  0
 37 20  2  0
 38 22  2  0
 39 34  1  0
 40 39  1  0
 41 42  2  0
 42 38  1  0
 43 40  1  0
 15  3  1  0
 30 26  1  0
 27 16  2  0
  8  9  1  0
 21 24  1  0
 41 37  1  0
 14 11  2  0
M  END
>  <From>  (1) 
www.bindingDB.org

>  <BindingDB Reactant_set_id>  (1) 
50468499

>  <Ligand InChI>  (1) 
InChI=1S/C32H31N7O4/c1-3-4-9-27-33-25-15-14-21(29-28-26(43-38(29)2)18-42-32(28)41)16-24(25)31(40)39(27)17-19-10-12-20(13-11-19)22-7-5-6-8-23(22)30-34-36-37-35-30/h5-8,10-16,26,28-29H,3-4,9,17-18H2,1-2H3,(H,34,35,36,37)/t26-,28+,29-/m0/s1

>  <Ligand InChI Key>  (1) 
GZKMGJWQSRSTMU-MKYKQAKUSA-N

>  <BindingDB MonomerID>  (1) 
50282900

>  <BindingDB Ligand Name>  (1) 
2-Butyl-6-((3R,3aS,6aR)-2-methyl-4-oxo-hexahydro-furo[3,4-d]isoxazol-3-yl)-3-[2'-(1H-tetrazol-5-yl)-biphenyl-4-ylmethyl]-3H-quinazolin-4-one::CHEMBL51606

>  <Target Name>  (1) 
Type-1 angiotensin II receptor

>  <Target Source Organism According to Curator or DataSource>  (1) 
Bos taurus

>  <Ki (nM)>  (1) 


>  <IC50 (nM)>  (1) 
 68

>  <Kd (nM)>  (1) 


>  <EC50 (nM)>  (1) 


>  <kon (M-1-s-1)>  (1) 


>  <koff (s-1)>  (1) 


>  <pH>  (1) 


>  <Temp C>  (1) 


>  <Curation/DataSource>  (1) 
ChEMBL

>  <Article DOI>  (1) 
10.1016/S0960-894X(01)80377-2

>  <BindingDB Entry DOI>  (1) 
10.7270/Q21V5DXH

>  <PMID>  (1) 


>  <PubChem AID>  (1) 


>  <Patent Number>  (1) 


>  <Authors>  (1) 
Levin, JI; Venkatesan, AM; Chan, PS; Bailey, TK; Vice, G; Coupet, J

>  <Institution>  (1) 
TBA

>  <Link to Ligand in BindingDB>  (1) 
http://www.bindingdb.org/bind/chemsearch/marvin/MolStructure.jsp?monomerid=50282900

>  <Link to Ligand-Target Pair in BindingDB>  (1) 
http://www.bindingdb.org/jsp/dbsearch/PrimarySearch_ki.jsp?energyterm=kJ/mole&tag=r21&monomerid=50282900&enzyme=Type-1+angiotensin+II+receptor&column=ki&startPg=0&Increment=50&submit=Search

>  <Ligand HET ID in PDB>  (1) 


>  <PDB ID(s) for Ligand-Target Complex>  (1) 


>  <PubChem CID of Ligand>  (1) 
22850890

>  <PubChem SID of Ligand>  (1) 
104124574

>  <ChEBI ID of Ligand>  (1) 


>  <ChEMBL ID of Ligand>  (1) 
CHEMBL51606

>  <DrugBank ID of Ligand>  (1) 


>  <IUPHAR_GRAC ID of Ligand>  (1) 


>  <KEGG ID of Ligand>  (1) 


>  <ZINC ID of Ligand>  (1) 
ZINC29481076

>  <Number of Protein Chains in Target (bigger than 1 implies a multichain complex)>  (1) 
1

>  <BindingDB Target Chain Sequence>  (1) 
MILNSSTEDGIKRIQDDCPKAGRHNYIFIMIPTLYSIIFVVGIFGNSLVVIVIYFYMKLKTVASVFLLNLALADLCFLLTLPLWAVYTAMEYRWPFGNYLCKIASASVSFNLYASVFLLTCLSIDRYLAIVHPMKSRLRRTMLVAKVTCIIIWLLAGLASLPTIIHRNVFFIENTNITVCAFHYESQNSTLPVGLGLTKNILGFLFPFLIILTSYTLIWKTLKKAYEIQKNKPRKDDIFKIILAIVLFFFFSWVPHQIFTFMDVLIQLGLIRDCKIEDIVDTAMPITICLAYFNNCLNPLFYGFLGKKFKKYFLQLLKYIPPKAKSHSNLSTKMSTLSYRPSENGNSSTKKPAPCIEVE

>  <PDB ID(s) of Target Chain>  (1) 


>  <UniProt (SwissProt) Recommended Name of Target Chain>  (1) 
Type-1 angiotensin II receptor

>  <UniProt (SwissProt) Entry Name of Target Chain>  (1) 
AGTR1_BOVIN

>  <UniProt (SwissProt) Primary ID of Target Chain>  (1) 
P25104

>  <UniProt (SwissProt) Secondary ID(s) of Target Chain>  (1) 


>  <UniProt (SwissProt) Alternative ID(s) of Target Chain>  (1) 


>  <UniProt (TrEMBL) Submitted Name of Target Chain>  (1) 


>  <UniProt (TrEMBL) Entry Name of Target Chain>  (1) 


>  <UniProt (TrEMBL) Primary ID of Target Chain>  (1) 


>  <UniProt (TrEMBL) Secondary ID(s) of Target Chain>  (1) 


>  <UniProt (TrEMBL) Alternative ID(s) of Target Chain>  (1) 


$$$$
