
     RDKit          2D

 35 38  0  0  0  0  0  0  0  0999 V2000
   10.0152  -17.2958    0.0000 N   0  0  0  0  0  0  0  0  0  0  0  0
   10.0141  -18.1232    0.0000 C   0  0  0  0  0  0  0  0  0  0  0  0
   10.7289  -18.5360    0.0000 N   0  0  0  0  0  0  0  0  0  0  0  0
   11.4453  -18.1227    0.0000 C   0  0  0  0  0  0  0  0  0  0  0  0
   11.4425  -17.2922    0.0000 C   0  0  0  0  0  0  0  0  0  0  0  0
   10.7271  -16.8830    0.0000 C   0  0  0  0  0  0  0  0  0  0  0  0
   10.7287  -19.3610    0.0000 C   0  0  0  0  0  0  0  0  0  0  0  0
   11.4431  -19.7737    0.0000 C   0  0  0  0  0  0  0  0  0  0  0  0
   11.4387  -20.5969    0.0000 C   0  0  0  0  0  0  0  0  0  0  0  0
   12.1522  -21.0095    0.0000 C   0  0  0  0  0  0  0  0  0  0  0  0
   12.8678  -20.5971    0.0000 C   0  0  0  0  0  0  0  0  0  0  0  0
   12.8653  -19.7679    0.0000 C   0  0  0  0  0  0  0  0  0  0  0  0
   12.1512  -19.3590    0.0000 C   0  0  0  0  0  0  0  0  0  0  0  0
   13.5819  -21.0083    0.0000 C   0  0  0  0  0  0  0  0  0  0  0  0
   13.5816  -21.8341    0.0000 C   0  0  0  0  0  0  0  0  0  0  0  0
   14.2955  -22.2461    0.0000 C   0  0  0  0  0  0  0  0  0  0  0  0
   15.0105  -21.8327    0.0000 C   0  0  0  0  0  0  0  0  0  0  0  0
   15.0070  -21.0035    0.0000 C   0  0  0  0  0  0  0  0  0  0  0  0
   14.2923  -20.5956    0.0000 C   0  0  0  0  0  0  0  0  0  0  0  0
   12.9302  -22.3425    0.0000 C   0  0  0  0  0  0  0  0  0  0  0  0
   12.1374  -22.1142    0.0000 N   0  0  0  0  0  0  0  0  0  0  0  0
   11.6754  -22.7978    0.0000 N   0  0  0  0  0  0  0  0  0  0  0  0
   12.1827  -23.4484    0.0000 N   0  0  0  0  0  0  0  0  0  0  0  0
   12.9583  -23.1670    0.0000 N   0  0  0  0  0  0  0  0  0  0  0  0
   12.1605  -18.5341    0.0000 O   0  0  0  0  0  0  0  0  0  0  0  0
    9.2993  -18.5351    0.0000 C   0  0  0  0  0  0  0  0  0  0  0  0
    8.5851  -18.1220    0.0000 C   0  0  0  0  0  0  0  0  0  0  0  0
    7.8703  -18.5340    0.0000 C   0  0  0  0  0  0  0  0  0  0  0  0
    7.1562  -18.1209    0.0000 C   0  0  0  0  0  0  0  0  0  0  0  0
   10.7246  -16.0580    0.0000 C   0  0  0  0  0  0  0  0  0  0  0  0
   12.1554  -16.8770    0.0000 C   0  0  0  0  0  0  0  0  0  0  0  0
   12.8714  -17.2868    0.0000 C   0  0  0  0  0  0  0  0  0  0  0  0
   13.5843  -16.8716    0.0000 C   0  0  0  0  0  0  0  0  0  0  0  0
   14.3003  -17.2814    0.0000 O   0  0  0  0  0  0  0  0  0  0  0  0
   13.5812  -16.0466    0.0000 O   0  0  0  0  0  0  0  0  0  0  0  0
 17 18  2  0
  8  9  2  0
 18 19  1  0
 19 14  2  0
 11 14  1  0
 23 24  1  0
  4  5  1  0
  9 10  1  0
 21 22  1  0
  2  3  1  0
 10 11  2  0
  5  6  2  0
 20 21  2  0
 22 23  2  0
 24 20  1  0
 15 20  1  0
 11 12  1  0
  4 25  2  0
  6  1  1  0
  2 26  1  0
 12 13  2  0
 26 27  1  0
 13  8  1  0
 27 28  1  0
  1  2  2  0
 28 29  1  0
  3  7  1  0
  6 30  1  0
 14 15  1  0
  5 31  1  0
  3  4  1  0
 31 32  1  0
 15 16  2  0
 32 33  1  0
  7  8  1  0
 33 34  1  0
 16 17  1  0
 33 35  2  0
M  END
>  <From>  (1) 
www.bindingDB.org

>  <BindingDB Reactant_set_id>  (1) 
50718749

>  <Ligand InChI>  (1) 
InChI=1S/C26H28N6O3/c1-3-4-9-23-27-17(2)20(14-15-24(33)34)26(35)32(23)16-18-10-12-19(13-11-18)21-7-5-6-8-22(21)25-28-30-31-29-25/h5-8,10-13H,3-4,9,14-16H2,1-2H3,(H,33,34)(H,28,29,30,31)

>  <Ligand InChI Key>  (1) 
YHPSQAZHDMGLJC-UHFFFAOYSA-N

>  <BindingDB MonomerID>  (1) 
50364576

>  <BindingDB Ligand Name>  (1) 
CHEMBL1951125

>  <Target Name>  (1) 
Type-1 angiotensin II receptor

>  <Target Source Organism According to Curator or DataSource>  (1) 
Oryctolagus cuniculus

>  <Ki (nM)>  (1) 


>  <IC50 (nM)>  (1) 
 9.43

>  <Kd (nM)>  (1) 


>  <EC50 (nM)>  (1) 


>  <kon (M-1-s-1)>  (1) 


>  <koff (s-1)>  (1) 


>  <pH>  (1) 


>  <Temp C>  (1) 


>  <Curation/DataSource>  (1) 
ChEMBL

>  <Article DOI>  (1) 
10.1016/j.bmcl.2011.12.116

>  <BindingDB Entry DOI>  (1) 
10.7270/Q22R3S48

>  <PMID>  (1) 
22264484

>  <PubChem AID>  (1) 


>  <Patent Number>  (1) 


>  <Authors>  (1) 
Kim, TW; Yoo, BW; Lee, JK; Kim, JH; Lee, KT; Chi, YH; Lee, JY

>  <Institution>  (1) 
Kyung Hee University

>  <Link to Ligand in BindingDB>  (1) 
http://www.bindingdb.org/bind/chemsearch/marvin/MolStructure.jsp?monomerid=50364576

>  <Link to Ligand-Target Pair in BindingDB>  (1) 
http://www.bindingdb.org/jsp/dbsearch/PrimarySearch_ki.jsp?energyterm=kJ/mole&tag=r21&monomerid=50364576&enzyme=Type-1+angiotensin+II+receptor&column=ki&startPg=0&Increment=50&submit=Search

>  <Ligand HET ID in PDB>  (1) 


>  <PDB ID(s) for Ligand-Target Complex>  (1) 


>  <PubChem CID of Ligand>  (1) 
54508770

>  <PubChem SID of Ligand>  (1) 
136968638

>  <ChEBI ID of Ligand>  (1) 


>  <ChEMBL ID of Ligand>  (1) 
CHEMBL1951125

>  <DrugBank ID of Ligand>  (1) 


>  <IUPHAR_GRAC ID of Ligand>  (1) 


>  <KEGG ID of Ligand>  (1) 


>  <ZINC ID of Ligand>  (1) 
ZINC73278035

>  <Number of Protein Chains in Target (bigger than 1 implies a multichain complex)>  (1) 
1

>  <BindingDB Target Chain Sequence>  (1) 
MMLNSSTEDGIKRIQDDCPKAGRHNYIFVMIPTLYSIIFVVGIFGNSLAVIVIYFYMKLKTVASVFLLNLALADLCFLLTLPLWAVYTAMEYRWPFGNYLCKIASASVSFNLYASVFLLTCLSIDRYLAIVHPMKSRLRRTMLVAKVTCIIIWLLAGLASLPAIIHRNVFFIENTNITVCAFHYESQNSTLPIGLGLTKNILGFLFPFLIILTSYTLIWKALKKAYEIQKNKPRNDDIFKIIMAIVLFFFFSWVPHQIFTFLDVLIQLGVIHDCRIADIVDTAMPITICIAYFNNCLNPLFYGFLGKKFKKYFLQLLKYIPPKAKSHSNLSTKMSTLSYRPSDNVSSSSKKPVPCFEVE

>  <PDB ID(s) of Target Chain>  (1) 
6DO1,6OS0,6OS1,6OS2

>  <UniProt (SwissProt) Recommended Name of Target Chain>  (1) 
Type-1 angiotensin II receptor

>  <UniProt (SwissProt) Entry Name of Target Chain>  (1) 
AGTR1_RABIT

>  <UniProt (SwissProt) Primary ID of Target Chain>  (1) 
P34976

>  <UniProt (SwissProt) Secondary ID(s) of Target Chain>  (1) 


>  <UniProt (SwissProt) Alternative ID(s) of Target Chain>  (1) 


>  <UniProt (TrEMBL) Submitted Name of Target Chain>  (1) 


>  <UniProt (TrEMBL) Entry Name of Target Chain>  (1) 


>  <UniProt (TrEMBL) Primary ID of Target Chain>  (1) 


>  <UniProt (TrEMBL) Secondary ID(s) of Target Chain>  (1) 


>  <UniProt (TrEMBL) Alternative ID(s) of Target Chain>  (1) 


$$$$
