
     RDKit          2D

 34 38  0  0  0  0  0  0  0  0999 V2000
   12.0319   -5.6625    0.0000 C   0  0  0  0  0  0  0  0  0  0  0  0
   12.0307   -6.4898    0.0000 C   0  0  0  0  0  0  0  0  0  0  0  0
   12.7456   -6.9027    0.0000 C   0  0  0  0  0  0  0  0  0  0  0  0
   12.7438   -5.2497    0.0000 C   0  0  0  0  0  0  0  0  0  0  0  0
   13.4591   -5.6588    0.0000 C   0  0  0  0  0  0  0  0  0  0  0  0
   13.4594   -6.4853    0.0000 C   0  0  0  0  0  0  0  0  0  0  0  0
   14.2455   -6.7404    0.0000 N   0  0  0  0  0  0  0  0  0  0  0  0
   14.7311   -6.0716    0.0000 C   0  0  0  0  0  0  0  0  0  0  0  0
   14.2451   -5.4033    0.0000 N   0  0  0  0  0  0  0  0  0  0  0  0
   12.7474   -7.7299    0.0000 C   0  0  0  0  0  0  0  0  0  0  0  0
   12.0340   -8.1443    0.0000 O   0  0  0  0  0  0  0  0  0  0  0  0
   13.4630   -8.1405    0.0000 O   0  0  0  0  0  0  0  0  0  0  0  0
   14.5007   -7.5250    0.0000 C   0  0  0  0  0  0  0  0  0  0  0  0
   15.3077   -7.6963    0.0000 C   0  0  0  0  0  0  0  0  0  0  0  0
   15.5610   -8.4821    0.0000 C   0  0  0  0  0  0  0  0  0  0  0  0
   16.3672   -8.6536    0.0000 C   0  0  0  0  0  0  0  0  0  0  0  0
   16.9200   -8.0400    0.0000 C   0  0  0  0  0  0  0  0  0  0  0  0
   16.6610   -7.2522    0.0000 C   0  0  0  0  0  0  0  0  0  0  0  0
   15.8554   -7.0844    0.0000 C   0  0  0  0  0  0  0  0  0  0  0  0
   17.7272   -8.2102    0.0000 N   0  0  0  0  0  0  0  0  0  0  0  0
   18.0648   -8.9602    0.0000 C   0  0  0  0  0  0  0  0  0  0  0  0
   18.8852   -8.8726    0.0000 C   0  0  0  0  0  0  0  0  0  0  0  0
   19.0554   -8.0653    0.0000 C   0  0  0  0  0  0  0  0  0  0  0  0
   18.3403   -7.6541    0.0000 C   0  0  0  0  0  0  0  0  0  0  0  0
   18.2530   -6.8382    0.0000 C   0  0  0  0  0  0  0  0  0  0  0  0
   18.8646   -6.2845    0.0000 N   0  0  0  0  0  0  0  0  0  0  0  0
   18.5269   -5.5317    0.0000 N   0  0  0  0  0  0  0  0  0  0  0  0
   17.7066   -5.6202    0.0000 N   0  0  0  0  0  0  0  0  0  0  0  0
   17.5374   -6.4276    0.0000 N   0  0  0  0  0  0  0  0  0  0  0  0
   12.0362   -8.9693    0.0000 C   0  0  0  0  0  0  0  0  0  0  0  0
   15.5561   -6.0713    0.0000 C   0  0  0  0  0  0  0  0  0  0  0  0
   15.9684   -5.3567    0.0000 C   0  0  0  0  0  0  0  0  0  0  0  0
   15.5556   -4.6424    0.0000 C   0  0  0  0  0  0  0  0  0  0  0  0
   12.7518   -9.3799    0.0000 C   0  0  0  0  0  0  0  0  0  0  0  0
  6  7  1  0
 16 17  2  0
  7  8  1  0
 17 18  1  0
  8  9  2  0
 18 19  2  0
 19 14  1  0
  9  5  1  0
 17 20  1  0
 20 21  1  0
  4  1  2  0
  5  6  2  0
 10 11  1  0
 21 22  2  0
 22 23  1  0
 23 24  2  0
 24 20  1  0
 25 26  1  0
 10 12  2  0
  3 10  1  0
  2  3  2  0
  7 13  1  0
  3  6  1  0
 26 27  1  0
 27 28  2  0
 28 29  1  0
 29 25  2  0
 24 25  1  0
 13 14  1  0
 11 30  1  0
  1  2  1  0
  8 31  1  0
 14 15  2  0
 31 32  1  0
  5  4  1  0
 32 33  1  0
 15 16  1  0
 30 34  1  0
M  END
>  <From>  (1) 
www.bindingDB.org

>  <BindingDB Reactant_set_id>  (1) 
50381242

>  <Ligand InChI>  (1) 
InChI=1S/C25H25N7O2/c1-3-7-22-26-20-9-5-8-19(25(33)34-4-2)23(20)32(22)16-17-11-13-18(14-12-17)31-15-6-10-21(31)24-27-29-30-28-24/h5-6,8-15H,3-4,7,16H2,1-2H3,(H,27,28,29,30)

>  <Ligand InChI Key>  (1) 
XFSBKAIGEYIFPG-UHFFFAOYSA-N

>  <BindingDB MonomerID>  (1) 
50209825

>  <BindingDB Ligand Name>  (1) 
CHEMBL440051::ethyl 3-(4-(2-(1H-tetrazol-5-yl)-1H-pyrrol-1-yl)benzyl)-2-propyl-3H-benzo[d]imidazole-4-carboxylate

>  <Target Name>  (1) 
Type-1 angiotensin II receptor

>  <Target Source Organism According to Curator or DataSource>  (1) 
Bos taurus

>  <Ki (nM)>  (1) 


>  <IC50 (nM)>  (1) 
 41

>  <Kd (nM)>  (1) 


>  <EC50 (nM)>  (1) 


>  <kon (M-1-s-1)>  (1) 


>  <koff (s-1)>  (1) 


>  <pH>  (1) 


>  <Temp C>  (1) 


>  <Curation/DataSource>  (1) 
ChEMBL

>  <Article DOI>  (1) 
10.1016/j.bmcl.2007.02.042

>  <BindingDB Entry DOI>  (1) 
10.7270/Q2C82908

>  <PMID>  (1) 
17412584

>  <PubChem AID>  (1) 


>  <Patent Number>  (1) 


>  <Authors>  (1) 
Xu, JY; Zeng, Y; Ran, Q; Wei, Z; Bi, Y; He, QH; Wang, QJ; Hu, S; Zhang, J; Tang, MY; Hua, WY; Wu, XM

>  <Institution>  (1) 
China Pharmaceutical University

>  <Link to Ligand in BindingDB>  (1) 
http://www.bindingdb.org/bind/chemsearch/marvin/MolStructure.jsp?monomerid=50209825

>  <Link to Ligand-Target Pair in BindingDB>  (1) 
http://www.bindingdb.org/jsp/dbsearch/PrimarySearch_ki.jsp?energyterm=kJ/mole&tag=r21&monomerid=50209825&enzyme=Type-1+angiotensin+II+receptor&column=ki&startPg=0&Increment=50&submit=Search

>  <Ligand HET ID in PDB>  (1) 


>  <PDB ID(s) for Ligand-Target Complex>  (1) 


>  <PubChem CID of Ligand>  (1) 
44438872

>  <PubChem SID of Ligand>  (1) 
104086513

>  <ChEBI ID of Ligand>  (1) 


>  <ChEMBL ID of Ligand>  (1) 
CHEMBL440051

>  <DrugBank ID of Ligand>  (1) 


>  <IUPHAR_GRAC ID of Ligand>  (1) 


>  <KEGG ID of Ligand>  (1) 


>  <ZINC ID of Ligand>  (1) 
ZINC28885360

>  <Number of Protein Chains in Target (bigger than 1 implies a multichain complex)>  (1) 
1

>  <BindingDB Target Chain Sequence>  (1) 
MILNSSTEDGIKRIQDDCPKAGRHNYIFIMIPTLYSIIFVVGIFGNSLVVIVIYFYMKLKTVASVFLLNLALADLCFLLTLPLWAVYTAMEYRWPFGNYLCKIASASVSFNLYASVFLLTCLSIDRYLAIVHPMKSRLRRTMLVAKVTCIIIWLLAGLASLPTIIHRNVFFIENTNITVCAFHYESQNSTLPVGLGLTKNILGFLFPFLIILTSYTLIWKTLKKAYEIQKNKPRKDDIFKIILAIVLFFFFSWVPHQIFTFMDVLIQLGLIRDCKIEDIVDTAMPITICLAYFNNCLNPLFYGFLGKKFKKYFLQLLKYIPPKAKSHSNLSTKMSTLSYRPSENGNSSTKKPAPCIEVE

>  <PDB ID(s) of Target Chain>  (1) 


>  <UniProt (SwissProt) Recommended Name of Target Chain>  (1) 
Type-1 angiotensin II receptor

>  <UniProt (SwissProt) Entry Name of Target Chain>  (1) 
AGTR1_BOVIN

>  <UniProt (SwissProt) Primary ID of Target Chain>  (1) 
P25104

>  <UniProt (SwissProt) Secondary ID(s) of Target Chain>  (1) 


>  <UniProt (SwissProt) Alternative ID(s) of Target Chain>  (1) 


>  <UniProt (TrEMBL) Submitted Name of Target Chain>  (1) 


>  <UniProt (TrEMBL) Entry Name of Target Chain>  (1) 


>  <UniProt (TrEMBL) Primary ID of Target Chain>  (1) 


>  <UniProt (TrEMBL) Secondary ID(s) of Target Chain>  (1) 


>  <UniProt (TrEMBL) Alternative ID(s) of Target Chain>  (1) 


$$$$
