
     RDKit          2D

 38 42  0  0  0  0  0  0  0  0999 V2000
    2.6000   -1.1750    0.0000 N   0  0  0  0  0  0  0  0  0  0  0  0
    1.8875   -2.4125    0.0000 N   0  0  0  0  0  0  0  0  0  0  0  0
    2.5917   -2.0000    0.0000 C   0  0  0  0  0  0  0  0  0  0  0  0
    1.1750   -1.1667    0.0000 N   0  0  0  0  0  0  0  0  0  0  0  0
    1.1750   -1.9917    0.0000 C   0  0  0  0  0  0  0  0  0  0  0  0
    2.9667    0.2000    0.0000 C   0  0  0  0  0  0  0  0  0  0  0  0
    3.1792   -0.5917    0.0000 C   0  0  0  0  0  0  0  0  0  0  0  0
    5.4500   -3.6500    0.0000 C   0  0  0  0  0  0  0  0  0  0  0  0
    5.0292   -2.3792    0.0000 N   0  0  0  0  0  0  0  0  0  0  0  0
    4.7792   -3.1667    0.0000 N   0  0  0  0  0  0  0  0  0  0  0  0
    5.8542   -2.3792    0.0000 N   0  0  0  0  0  0  0  0  0  0  0  0
    2.1667    0.4125    0.0000 C   0  0  0  0  0  0  0  0  0  0  0  0
    6.1125   -3.1625    0.0000 N   0  0  0  0  0  0  0  0  0  0  0  0
    5.4542   -4.4750    0.0000 C   0  0  0  0  0  0  0  0  0  0  0  0
    4.7417   -4.8917    0.0000 C   0  0  0  0  0  0  0  0  0  0  0  0
    1.8875   -3.2375    0.0000 C   0  0  0  0  0  0  0  0  0  0  0  0
    3.3125   -2.4125    0.0000 O   0  0  0  0  0  0  0  0  0  0  0  0
    4.0292   -4.4792    0.0000 C   0  0  0  0  0  0  0  0  0  0  0  0
    1.9542    1.2083    0.0000 F   0  0  0  0  0  0  0  0  0  0  0  0
    1.5917   -0.1667    0.0000 F   0  0  0  0  0  0  0  0  0  0  0  0
    1.3667    0.6333    0.0000 F   0  0  0  0  0  0  0  0  0  0  0  0
    4.0250   -3.6500    0.0000 C   0  0  0  0  0  0  0  0  0  0  0  0
    3.3125   -4.8917    0.0000 C   0  0  0  0  0  0  0  0  0  0  0  0
    2.6042   -3.6542    0.0000 C   0  0  0  0  0  0  0  0  0  0  0  0
    0.4542   -2.4042    0.0000 C   0  0  0  0  0  0  0  0  0  0  0  0
    3.5500    0.7833    0.0000 C   0  0  0  0  0  0  0  0  0  0  0  0
    3.3125   -3.2417    0.0000 C   0  0  0  0  0  0  0  0  0  0  0  0
    2.6000   -4.4792    0.0000 C   0  0  0  0  0  0  0  0  0  0  0  0
    3.9792   -0.8125    0.0000 C   0  0  0  0  0  0  0  0  0  0  0  0
    6.1667   -4.8792    0.0000 C   0  0  0  0  0  0  0  0  0  0  0  0
    4.7417   -5.7167    0.0000 C   0  0  0  0  0  0  0  0  0  0  0  0
   -0.2583   -1.9875    0.0000 C   0  0  0  0  0  0  0  0  0  0  0  0
   -0.9708   -2.4000    0.0000 C   0  0  0  0  0  0  0  0  0  0  0  0
    4.3500    0.5708    0.0000 C   0  0  0  0  0  0  0  0  0  0  0  0
    4.5625   -0.2292    0.0000 C   0  0  0  0  0  0  0  0  0  0  0  0
    6.1667   -5.7125    0.0000 C   0  0  0  0  0  0  0  0  0  0  0  0
    5.4542   -6.1292    0.0000 C   0  0  0  0  0  0  0  0  0  0  0  0
   -1.6833   -1.9792    0.0000 C   0  0  0  0  0  0  0  0  0  0  0  0
  2  3  1  0
  3  1  1  0
  4  1  1  0
  5  4  2  0
  6  7  2  0
  7  1  1  0
  8 14  1  0
  9 10  1  0
 10  8  1  0
 11 13  1  0
 12  6  1  0
 13  8  2  0
 14 15  1  0
 15 18  1  0
 16  2  1  0
 17  3  2  0
 18 23  2  0
 19 12  1  0
 20 12  1  0
 21 12  1  0
 22 27  2  0
 23 28  1  0
 24 16  1  0
 25  5  1  0
 26  6  1  0
 27 24  1  0
 28 24  2  0
 29  7  1  0
 30 14  2  0
 31 15  2  0
 32 25  1  0
 33 32  1  0
 34 35  1  0
 35 29  2  0
 36 37  2  0
 37 31  1  0
 38 33  1  0
  5  2  1  0
 26 34  2  0
 22 18  1  0
 30 36  1  0
  9 11  2  0
M  END
>  <From>  (1) 
www.bindingDB.org

>  <BindingDB Reactant_set_id>  (1) 
51185941

>  <Ligand InChI>  (1) 
InChI=1S/C27H24F3N7O/c1-2-3-12-24-33-37(23-11-7-6-10-22(23)27(28,29)30)26(38)36(24)17-18-13-15-19(16-14-18)20-8-4-5-9-21(20)25-31-34-35-32-25/h4-11,13-16H,2-3,12,17H2,1H3,(H,31,32,34,35)

>  <Ligand InChI Key>  (1) 
DWXCNNUZEBMCMR-UHFFFAOYSA-N

>  <BindingDB MonomerID>  (1) 
50035431

>  <BindingDB Ligand Name>  (1) 
5-Butyl-4-[2'-(1H-tetrazol-5-yl)-biphenyl-4-ylmethyl]-2-(2-trifluoromethyl-phenyl)-2,4-dihydro-[1,2,4]triazol-3-one::5-Butyl-4-[2'-(2H-tetrazol-5-yl)-biphenyl-4-ylmethyl]-2-(2-trifluoromethyl-phenyl)-2,4-dihydro-[1,2,4]triazol-3-one::CHEMBL19018

>  <Target Name>  (1) 
Type-1 angiotensin II receptor

>  <Target Source Organism According to Curator or DataSource>  (1) 
Oryctolagus cuniculus

>  <Ki (nM)>  (1) 


>  <IC50 (nM)>  (1) 
 1.2

>  <Kd (nM)>  (1) 


>  <EC50 (nM)>  (1) 


>  <kon (M-1-s-1)>  (1) 


>  <koff (s-1)>  (1) 


>  <pH>  (1) 


>  <Temp C>  (1) 


>  <Curation/DataSource>  (1) 
ChEMBL

>  <Article DOI>  (1) 
10.1007/s00044-009-9197-5

>  <BindingDB Entry DOI>  (1) 
10.7270/Q2H41V9D

>  <PMID>  (1) 


>  <PubChem AID>  (1) 


>  <Patent Number>  (1) 


>  <Authors>  (1) 
n/a

>  <Institution>  (1) 
n/a

>  <Link to Ligand in BindingDB>  (1) 
http://www.bindingdb.org/bind/chemsearch/marvin/MolStructure.jsp?monomerid=50035431

>  <Link to Ligand-Target Pair in BindingDB>  (1) 
http://www.bindingdb.org/jsp/dbsearch/PrimarySearch_ki.jsp?energyterm=kJ/mole&tag=r21&monomerid=50035431&enzyme=Type-1+angiotensin+II+receptor&column=ki&startPg=0&Increment=50&submit=Search

>  <Ligand HET ID in PDB>  (1) 


>  <PDB ID(s) for Ligand-Target Complex>  (1) 


>  <PubChem CID of Ligand>  (1) 
14956757

>  <PubChem SID of Ligand>  (1) 
103943450

>  <ChEBI ID of Ligand>  (1) 


>  <ChEMBL ID of Ligand>  (1) 
CHEMBL19018

>  <DrugBank ID of Ligand>  (1) 


>  <IUPHAR_GRAC ID of Ligand>  (1) 


>  <KEGG ID of Ligand>  (1) 


>  <ZINC ID of Ligand>  (1) 
ZINC13739970

>  <Number of Protein Chains in Target (bigger than 1 implies a multichain complex)>  (1) 
1

>  <BindingDB Target Chain Sequence>  (1) 
MMLNSSTEDGIKRIQDDCPKAGRHNYIFVMIPTLYSIIFVVGIFGNSLAVIVIYFYMKLKTVASVFLLNLALADLCFLLTLPLWAVYTAMEYRWPFGNYLCKIASASVSFNLYASVFLLTCLSIDRYLAIVHPMKSRLRRTMLVAKVTCIIIWLLAGLASLPAIIHRNVFFIENTNITVCAFHYESQNSTLPIGLGLTKNILGFLFPFLIILTSYTLIWKALKKAYEIQKNKPRNDDIFKIIMAIVLFFFFSWVPHQIFTFLDVLIQLGVIHDCRIADIVDTAMPITICIAYFNNCLNPLFYGFLGKKFKKYFLQLLKYIPPKAKSHSNLSTKMSTLSYRPSDNVSSSSKKPVPCFEVE

>  <PDB ID(s) of Target Chain>  (1) 
6DO1,6OS0,6OS1,6OS2

>  <UniProt (SwissProt) Recommended Name of Target Chain>  (1) 
Type-1 angiotensin II receptor

>  <UniProt (SwissProt) Entry Name of Target Chain>  (1) 
AGTR1_RABIT

>  <UniProt (SwissProt) Primary ID of Target Chain>  (1) 
P34976

>  <UniProt (SwissProt) Secondary ID(s) of Target Chain>  (1) 


>  <UniProt (SwissProt) Alternative ID(s) of Target Chain>  (1) 


>  <UniProt (TrEMBL) Submitted Name of Target Chain>  (1) 


>  <UniProt (TrEMBL) Entry Name of Target Chain>  (1) 


>  <UniProt (TrEMBL) Primary ID of Target Chain>  (1) 


>  <UniProt (TrEMBL) Secondary ID(s) of Target Chain>  (1) 


>  <UniProt (TrEMBL) Alternative ID(s) of Target Chain>  (1) 


$$$$
