
     RDKit          2D

 40 43  0  0  0  0  0  0  0  0999 V2000
    1.0625    0.1083    0.0000 N   0  0  0  0  0  0  0  0  0  0  0  0
    2.0292    0.1083    0.0000 N   0  0  0  0  0  0  0  0  0  0  0  0
    1.5500   -0.2417    0.0000 C   0  0  0  0  0  0  0  0  0  0  0  0
    1.2500    0.6833    0.0000 C   0  0  0  0  0  0  0  0  0  0  0  0
    1.8500    0.6833    0.0000 C   0  0  0  0  0  0  0  0  0  0  0  0
    0.3667   -0.6625    0.0000 C   0  0  0  0  0  0  0  0  0  0  0  0
    0.8917    1.1708    0.0000 C   0  0  0  0  0  0  0  0  0  0  0  0
   -0.1083    1.5583    0.0000 N   0  0  0  0  0  0  0  0  0  0  0  0
    0.3000    1.1083    0.0000 C   0  0  0  0  0  0  0  0  0  0  0  0
    0.4917   -0.0750    0.0000 C   0  0  0  0  0  0  0  0  0  0  0  0
   -0.6583    0.7583    0.0000 N   0  0  0  0  0  0  0  0  0  0  0  0
   -0.1208   -1.5000    0.0000 N   0  0  0  0  0  0  0  0  0  0  0  0
   -0.6500    1.3083    0.0000 C   0  0  0  0  0  0  0  0  0  0  0  0
    0.7667   -1.1042    0.0000 C   0  0  0  0  0  0  0  0  0  0  0  0
    0.4667   -1.6250    0.0000 O   0  0  0  0  0  0  0  0  0  0  0  0
   -0.0083    0.5875    0.0000 C   0  0  0  0  0  0  0  0  0  0  0  0
   -0.1833   -0.9042    0.0000 C   0  0  0  0  0  0  0  0  0  0  0  0
    2.3000    2.8833    0.0000 C   0  0  0  0  0  0  0  0  0  0  0  0
    1.5542   -0.5875    0.0000 O   0  0  0  0  0  0  0  0  0  0  0  0
    0.0167    2.1458    0.0000 C   0  0  0  0  0  0  0  0  0  0  0  0
    2.1917    1.1708    0.0000 O   0  0  0  0  0  0  0  0  0  0  0  0
    1.7167    2.7375    0.0000 C   0  0  0  0  0  0  0  0  0  0  0  0
    2.4667    3.4583    0.0000 O   0  0  0  0  0  0  0  0  0  0  0  0
    2.6042   -0.0750    0.0000 C   0  0  0  0  0  0  0  0  0  0  0  0
    1.6042    2.1083    0.0000 C   0  0  0  0  0  0  0  0  0  0  0  0
    1.2917    3.1500    0.0000 C   0  0  0  0  0  0  0  0  0  0  0  0
    0.5917    2.3333    0.0000 C   0  0  0  0  0  0  0  0  0  0  0  0
    2.7167    2.4458    0.0000 O   0  0  0  0  0  0  0  0  0  0  0  0
    1.0375    1.9208    0.0000 C   0  0  0  0  0  0  0  0  0  0  0  0
    0.7167    2.9083    0.0000 C   0  0  0  0  0  0  0  0  0  0  0  0
   -1.1708    1.6083    0.0000 C   0  0  0  0  0  0  0  0  0  0  0  0
    1.3667   -1.0417    0.0000 C   0  0  0  0  0  0  0  0  0  0  0  0
   -0.7000   -0.6042    0.0000 C   0  0  0  0  0  0  0  0  0  0  0  0
    3.3000    2.5875    0.0000 C   0  0  0  0  0  0  0  0  0  0  0  0
    2.7292   -0.6625    0.0000 C   0  0  0  0  0  0  0  0  0  0  0  0
   -1.6958    1.3083    0.0000 C   0  0  0  0  0  0  0  0  0  0  0  0
   -2.2125    1.6083    0.0000 C   0  0  0  0  0  0  0  0  0  0  0  0
    3.3000   -0.8417    0.0000 C   0  0  0  0  0  0  0  0  0  0  0  0
   -2.7333    1.3083    0.0000 C   0  0  0  0  0  0  0  0  0  0  0  0
    3.4250   -1.4292    0.0000 C   0  0  0  0  0  0  0  0  0  0  0  0
  2  3  1  0
  3  1  1  0
  4  1  1  0
  5  4  1  0
  6 10  1  0
  7  4  2  0
  8  9  1  0
  9  7  1  0
 10  1  1  0
 11 16  1  0
 12 17  2  0
 13  8  1  0
 14  6  2  0
 15 14  1  0
 16  9  2  0
 17  6  1  0
 18 22  1  0
 19  3  2  0
 20  8  1  0
 21  5  2  0
 22 26  2  0
 23 18  2  0
 24  2  1  0
 25 29  2  0
 26 30  1  0
 27 20  1  0
 28 18  1  0
 29 27  1  0
 30 27  2  0
 31 13  1  0
 32 14  1  0
 33 17  1  0
 34 28  1  0
 35 24  1  0
 36 31  1  0
 37 36  1  0
 38 35  1  0
 39 37  1  0
 40 38  1  0
  5  2  1  0
 12 15  1  0
 13 11  2  0
 25 22  1  0
M  END
>  <From>  (1) 
www.bindingDB.org

>  <BindingDB Reactant_set_id>  (1) 
51186093

>  <Ligand InChI>  (1) 
InChI=1S/C30H37N5O5/c1-6-8-10-27-31-17-24(34(27)18-22-11-13-23(14-12-22)29(37)39-5)16-26-28(36)33(15-9-7-2)30(38)35(26)19-25-20(3)32-40-21(25)4/h11-14,16-17H,6-10,15,18-19H2,1-5H3/b26-16-

>  <Ligand InChI Key>  (1) 
FUXFTCRJYUOUDL-QQXSKIMKSA-N

>  <BindingDB MonomerID>  (1) 
50487711

>  <BindingDB Ligand Name>  (1) 
CHEMBL124141

>  <Target Name>  (1) 
Type-1 angiotensin II receptor

>  <Target Source Organism According to Curator or DataSource>  (1) 
Homo sapiens

>  <Ki (nM)>  (1) 


>  <IC50 (nM)>  (1) 
 198

>  <Kd (nM)>  (1) 


>  <EC50 (nM)>  (1) 


>  <kon (M-1-s-1)>  (1) 


>  <koff (s-1)>  (1) 


>  <pH>  (1) 


>  <Temp C>  (1) 


>  <Curation/DataSource>  (1) 
ChEMBL

>  <Article DOI>  (1) 
10.1007/s00044-009-9205-9

>  <BindingDB Entry DOI>  (1) 
10.7270/Q2CC13K2

>  <PMID>  (1) 


>  <PubChem AID>  (1) 


>  <Patent Number>  (1) 


>  <Authors>  (1) 
n/a

>  <Institution>  (1) 
n/a

>  <Link to Ligand in BindingDB>  (1) 
http://www.bindingdb.org/bind/chemsearch/marvin/MolStructure.jsp?monomerid=50487711

>  <Link to Ligand-Target Pair in BindingDB>  (1) 
http://www.bindingdb.org/jsp/dbsearch/PrimarySearch_ki.jsp?energyterm=kJ/mole&tag=r21&monomerid=50487711&enzyme=Type-1+angiotensin+II+receptor&column=ki&startPg=0&Increment=50&submit=Search

>  <Ligand HET ID in PDB>  (1) 


>  <PDB ID(s) for Ligand-Target Complex>  (1) 


>  <PubChem CID of Ligand>  (1) 
11757216

>  <PubChem SID of Ligand>  (1) 
433954976

>  <ChEBI ID of Ligand>  (1) 


>  <ChEMBL ID of Ligand>  (1) 


>  <DrugBank ID of Ligand>  (1) 


>  <IUPHAR_GRAC ID of Ligand>  (1) 


>  <KEGG ID of Ligand>  (1) 


>  <ZINC ID of Ligand>  (1) 


>  <Number of Protein Chains in Target (bigger than 1 implies a multichain complex)>  (1) 
1

>  <BindingDB Target Chain Sequence>  (1) 
MILNSSTEDGIKRIQDDCPKAGRHNYIFVMIPTLYSIIFVVGIFGNSLVVIVIYFYMKLKTVASVFLLNLALADLCFLLTLPLWAVYTAMEYRWPFGNYLCKIASASVSFNLYASVFLLTCLSIDRYLAIVHPMKSRLRRTMLVAKVTCIIIWLLAGLASLPAIIHRNVFFIENTNITVCAFHYESQNSTLPIGLGLTKNILGFLFPFLIILTSYTLIWKALKKAYEIQKNKPRNDDIFKIIMAIVLFFFFSWIPHQIFTFLDVLIQLGIIRDCRIADIVDTAMPITICIAYFNNCLNPLFYGFLGKKFKRYFLQLLKYIPPKAKSHSNLSTKMSTLSYRPSDNVSSSTKKPAPCFEVE

>  <PDB ID(s) of Target Chain>  (1) 
6DO1,6OS0,6OS1,6OS2

>  <UniProt (SwissProt) Recommended Name of Target Chain>  (1) 
Type-1 angiotensin II receptor

>  <UniProt (SwissProt) Entry Name of Target Chain>  (1) 
AGTR1_HUMAN

>  <UniProt (SwissProt) Primary ID of Target Chain>  (1) 
P30556

>  <UniProt (SwissProt) Secondary ID(s) of Target Chain>  (1) 
Q13725 Q8TBK4

>  <UniProt (SwissProt) Alternative ID(s) of Target Chain>  (1) 


>  <UniProt (TrEMBL) Submitted Name of Target Chain>  (1) 


>  <UniProt (TrEMBL) Entry Name of Target Chain>  (1) 


>  <UniProt (TrEMBL) Primary ID of Target Chain>  (1) 


>  <UniProt (TrEMBL) Secondary ID(s) of Target Chain>  (1) 


>  <UniProt (TrEMBL) Alternative ID(s) of Target Chain>  (1) 


$$$$
