
     RDKit          2D

 51 56  0  0  0  0  0  0  0  0999 V2000
    7.4858  -11.9548    0.0000 C   0  0  0  0  0  0  0  0  0  0  0  0
    7.4900  -12.7775    0.0000 C   0  0  0  0  0  0  0  0  0  0  0  0
    6.7760  -13.1898    0.0000 C   0  0  0  0  0  0  0  0  0  0  0  0
    6.0604  -12.7768    0.0000 C   0  0  0  0  0  0  0  0  0  0  0  0
    6.0633  -11.9474    0.0000 C   0  0  0  0  0  0  0  0  0  0  0  0
    6.7780  -11.5387    0.0000 C   0  0  0  0  0  0  0  0  0  0  0  0
    8.1967  -11.5382    0.0000 C   0  0  0  0  0  0  0  0  0  0  0  0
    8.1961  -10.7134    0.0000 N   0  0  0  0  0  0  0  0  0  0  0  0
    8.1967   -9.3823    0.0000 N   0  0  0  0  0  0  0  0  0  0  0  0
    7.7109  -10.0494    0.0000 C   0  0  0  0  0  0  0  0  0  0  0  0
    8.9813   -9.6382    0.0000 C   0  0  0  0  0  0  0  0  0  0  0  0
    8.9790  -10.4625    0.0000 C   0  0  0  0  0  0  0  0  0  0  0  0
    9.6907  -10.8750    0.0000 C   0  0  0  0  0  0  0  0  0  0  0  0
   10.4051  -10.4640    0.0000 N   0  0  0  0  0  0  0  0  0  0  0  0
   10.4034   -9.6366    0.0000 C   0  0  0  0  0  0  0  0  0  0  0  0
    9.6912   -9.2278    0.0000 C   0  0  0  0  0  0  0  0  0  0  0  0
    6.8856  -10.0501    0.0000 C   0  0  0  0  0  0  0  0  0  0  0  0
    6.4724   -9.3357    0.0000 C   0  0  0  0  0  0  0  0  0  0  0  0
    6.8845   -8.6206    0.0000 C   0  0  0  0  0  0  0  0  0  0  0  0
    6.4713   -7.9063    0.0000 C   0  0  0  0  0  0  0  0  0  0  0  0
    5.3468  -13.1860    0.0000 C   0  0  0  0  0  0  0  0  0  0  0  0
    4.6325  -12.7704    0.0000 C   0  0  0  0  0  0  0  0  0  0  0  0
    3.9176  -13.1812    0.0000 C   0  0  0  0  0  0  0  0  0  0  0  0
    3.9157  -14.0074    0.0000 C   0  0  0  0  0  0  0  0  0  0  0  0
    4.6347  -14.4210    0.0000 C   0  0  0  0  0  0  0  0  0  0  0  0
    5.3468  -14.0080    0.0000 C   0  0  0  0  0  0  0  0  0  0  0  0
    9.6894  -11.7003    0.0000 O   0  0  0  0  0  0  0  0  0  0  0  0
   11.1200  -10.8766    0.0000 C   0  0  0  0  0  0  0  0  0  0  0  0
   11.8346  -10.4638    0.0000 C   0  0  0  0  0  0  0  0  0  0  0  0
   12.5494  -10.8763    0.0000 N   0  0  0  0  0  0  0  0  0  0  0  0
   11.8344   -9.6386    0.0000 O   0  0  0  0  0  0  0  0  0  0  0  0
   12.5439  -11.7007    0.0000 C   0  0  0  0  0  0  0  0  0  0  0  0
   13.2546  -12.1131    0.0000 C   0  0  0  0  0  0  0  0  0  0  0  0
   13.9717  -11.7039    0.0000 C   0  0  0  0  0  0  0  0  0  0  0  0
   13.9735  -10.8776    0.0000 C   0  0  0  0  0  0  0  0  0  0  0  0
   13.2582  -10.4606    0.0000 C   0  0  0  0  0  0  0  0  0  0  0  0
    8.2058  -13.1883    0.0000 F   0  0  0  0  0  0  0  0  0  0  0  0
    4.6347  -11.9452    0.0000 S   0  0  0  0  0  0  0  0  0  0  0  0
    3.9212  -11.5306    0.0000 N   0  0  0  0  0  0  0  0  0  0  0  0
    5.4561  -11.9417    0.0000 O   0  0  0  0  0  0  0  0  0  0  0  0
    4.8434  -11.1414    0.0000 O   0  0  0  0  0  0  0  0  0  0  0  0
    3.2053  -11.9413    0.0000 C   0  0  0  0  0  0  0  0  0  0  0  0
    2.4917  -11.5267    0.0000 O   0  0  0  0  0  0  0  0  0  0  0  0
    3.2030  -12.7665    0.0000 O   0  0  0  0  0  0  0  0  0  0  0  0
    1.7758  -11.9374    0.0000 C   0  0  0  0  0  0  0  0  0  0  0  0
    1.0623  -11.5228    0.0000 C   0  0  0  0  0  0  0  0  0  0  0  0
    1.0667  -10.6985    0.0000 C   0  0  0  0  0  0  0  0  0  0  0  0
    0.3539  -10.2841    0.0000 C   0  0  0  0  0  0  0  0  0  0  0  0
   -0.3629  -10.6948    0.0000 C   0  0  0  0  0  0  0  0  0  0  0  0
   -0.3625  -11.5243    0.0000 C   0  0  0  0  0  0  0  0  0  0  0  0
    0.3508  -11.9352    0.0000 C   0  0  0  0  0  0  0  0  0  0  0  0
 24 25  2  0
  6  1  1  0
 25 26  1  0
 26 21  2  0
  4 21  1  0
 12 13  1  0
 13 27  2  0
  1  2  2  0
 14 28  1  0
 13 14  1  0
 28 29  1  0
  3  4  2  0
 29 30  1  0
 14 15  1  0
 29 31  2  0
 30 32  1  0
  7  8  1  0
 15 16  2  0
 16 11  1  0
  8 12  1  0
 10 17  1  0
 30 36  1  0
 32 33  1  0
 33 34  1  0
 34 35  1  0
 35 36  1  0
  2 37  1  0
 17 18  1  0
 22 38  1  0
  4  5  1  0
 38 39  1  0
 18 19  1  0
 38 40  2  0
 11  9  1  0
 38 41  2  0
 19 20  1  0
 39 42  1  0
  7  1  1  0
 42 43  1  0
  9 10  2  0
 42 44  2  0
 10  8  1  0
 43 45  1  0
 21 22  1  0
 45 46  1  0
  2  3  1  0
 46 47  2  0
 22 23  2  0
 47 48  1  0
  5  6  2  0
 48 49  2  0
 23 24  1  0
 49 50  1  0
 11 12  2  0
 50 51  2  0
 51 46  1  0
M  END
>  <From>  (1) 
www.bindingDB.org

>  <BindingDB Reactant_set_id>  (1) 
50620743

>  <Ligand InChI>  (1) 
InChI=1S/C38H40FN5O6S/c1-2-3-16-34-40-32-19-22-43(25-35(45)42-20-10-5-11-21-42)37(46)36(32)44(34)24-29-18-17-28(23-31(29)39)30-14-8-9-15-33(30)51(48,49)41-38(47)50-26-27-12-6-4-7-13-27/h4,6-9,12-15,17-19,22-23H,2-3,5,10-11,16,20-21,24-26H2,1H3,(H,41,47)

>  <Ligand InChI Key>  (1) 
SRTIJEBZPDTYRV-UHFFFAOYSA-N

>  <BindingDB MonomerID>  (1) 
50335924

>  <BindingDB Ligand Name>  (1) 
CHEMBL1668007::benzyl 4'-((2-butyl-4-oxo-5-(2-oxo-2-(piperidin-1-yl)ethyl)-4,5-dihydro-3H-imidazo[4,5-c]pyridin-3-yl)methyl)-3'-fluorobiphenyl-2-ylsulfonylcarbamate

>  <Target Name>  (1) 
Type-1 angiotensin II receptor

>  <Target Source Organism According to Curator or DataSource>  (1) 
Homo sapiens

>  <Ki (nM)>  (1) 


>  <IC50 (nM)>  (1) 
 4.7

>  <Kd (nM)>  (1) 


>  <EC50 (nM)>  (1) 


>  <kon (M-1-s-1)>  (1) 


>  <koff (s-1)>  (1) 


>  <pH>  (1) 


>  <Temp C>  (1) 


>  <Curation/DataSource>  (1) 
ChEMBL

>  <Article DOI>  (1) 
10.1016/j.bmc.2010.10.043

>  <BindingDB Entry DOI>  (1) 
10.7270/Q2H70G3T

>  <PMID>  (1) 
21071232

>  <PubChem AID>  (1) 


>  <Patent Number>  (1) 


>  <Authors>  (1) 
Naik, P; Murumkar, P; Giridhar, R; Yadav, MR

>  <Institution>  (1) 
The M. S. University of Baroda

>  <Link to Ligand in BindingDB>  (1) 
http://www.bindingdb.org/bind/chemsearch/marvin/MolStructure.jsp?monomerid=50335924

>  <Link to Ligand-Target Pair in BindingDB>  (1) 
http://www.bindingdb.org/jsp/dbsearch/PrimarySearch_ki.jsp?energyterm=kJ/mole&tag=r21&monomerid=50335924&enzyme=Type-1+angiotensin+II+receptor&column=ki&startPg=0&Increment=50&submit=Search

>  <Ligand HET ID in PDB>  (1) 


>  <PDB ID(s) for Ligand-Target Complex>  (1) 


>  <PubChem CID of Ligand>  (1) 
10350123

>  <PubChem SID of Ligand>  (1) 
125086026

>  <ChEBI ID of Ligand>  (1) 


>  <ChEMBL ID of Ligand>  (1) 
CHEMBL1668007

>  <DrugBank ID of Ligand>  (1) 


>  <IUPHAR_GRAC ID of Ligand>  (1) 


>  <KEGG ID of Ligand>  (1) 


>  <ZINC ID of Ligand>  (1) 


>  <Number of Protein Chains in Target (bigger than 1 implies a multichain complex)>  (1) 
1

>  <BindingDB Target Chain Sequence>  (1) 
MILNSSTEDGIKRIQDDCPKAGRHNYIFVMIPTLYSIIFVVGIFGNSLVVIVIYFYMKLKTVASVFLLNLALADLCFLLTLPLWAVYTAMEYRWPFGNYLCKIASASVSFNLYASVFLLTCLSIDRYLAIVHPMKSRLRRTMLVAKVTCIIIWLLAGLASLPAIIHRNVFFIENTNITVCAFHYESQNSTLPIGLGLTKNILGFLFPFLIILTSYTLIWKALKKAYEIQKNKPRNDDIFKIIMAIVLFFFFSWIPHQIFTFLDVLIQLGIIRDCRIADIVDTAMPITICIAYFNNCLNPLFYGFLGKKFKRYFLQLLKYIPPKAKSHSNLSTKMSTLSYRPSDNVSSSTKKPAPCFEVE

>  <PDB ID(s) of Target Chain>  (1) 
6DO1,6OS0,6OS1,6OS2

>  <UniProt (SwissProt) Recommended Name of Target Chain>  (1) 
Type-1 angiotensin II receptor

>  <UniProt (SwissProt) Entry Name of Target Chain>  (1) 
AGTR1_HUMAN

>  <UniProt (SwissProt) Primary ID of Target Chain>  (1) 
P30556

>  <UniProt (SwissProt) Secondary ID(s) of Target Chain>  (1) 
Q13725 Q8TBK4

>  <UniProt (SwissProt) Alternative ID(s) of Target Chain>  (1) 


>  <UniProt (TrEMBL) Submitted Name of Target Chain>  (1) 


>  <UniProt (TrEMBL) Entry Name of Target Chain>  (1) 


>  <UniProt (TrEMBL) Primary ID of Target Chain>  (1) 


>  <UniProt (TrEMBL) Secondary ID(s) of Target Chain>  (1) 


>  <UniProt (TrEMBL) Alternative ID(s) of Target Chain>  (1) 


$$$$
