
     RDKit          2D

 40 44  0  0  0  0  0  0  0  0999 V2000
    4.8770   -8.8780    0.0000 N   0  0  0  0  0  0  0  0  0  0  0  0
    1.2819   -9.2541    0.0000 N   0  0  0  0  0  0  0  0  0  0  0  0
    1.2807  -10.0815    0.0000 C   0  0  0  0  0  0  0  0  0  0  0  0
    1.9956  -10.4944    0.0000 N   0  0  0  0  0  0  0  0  0  0  0  0
    2.7120  -10.0810    0.0000 C   0  0  0  0  0  0  0  0  0  0  0  0
    2.7091   -9.2505    0.0000 C   0  0  0  0  0  0  0  0  0  0  0  0
    1.9938   -8.8414    0.0000 C   0  0  0  0  0  0  0  0  0  0  0  0
    1.9954  -11.3194    0.0000 C   0  0  0  0  0  0  0  0  0  0  0  0
    2.7097  -11.7320    0.0000 C   0  0  0  0  0  0  0  0  0  0  0  0
    2.7054  -12.5552    0.0000 C   0  0  0  0  0  0  0  0  0  0  0  0
    3.4189  -12.9678    0.0000 C   0  0  0  0  0  0  0  0  0  0  0  0
    4.1344  -12.5555    0.0000 C   0  0  0  0  0  0  0  0  0  0  0  0
    4.1320  -11.7262    0.0000 C   0  0  0  0  0  0  0  0  0  0  0  0
    3.4179  -11.3173    0.0000 C   0  0  0  0  0  0  0  0  0  0  0  0
    4.8486  -12.9666    0.0000 C   0  0  0  0  0  0  0  0  0  0  0  0
    4.8482  -13.7924    0.0000 C   0  0  0  0  0  0  0  0  0  0  0  0
    5.5622  -14.2044    0.0000 C   0  0  0  0  0  0  0  0  0  0  0  0
    6.2772  -13.7911    0.0000 C   0  0  0  0  0  0  0  0  0  0  0  0
    6.2736  -12.9618    0.0000 C   0  0  0  0  0  0  0  0  0  0  0  0
    5.5590  -12.5539    0.0000 C   0  0  0  0  0  0  0  0  0  0  0  0
    4.1969  -14.3008    0.0000 C   0  0  0  0  0  0  0  0  0  0  0  0
    3.4041  -14.0726    0.0000 N   0  0  0  0  0  0  0  0  0  0  0  0
    2.9421  -14.7561    0.0000 N   0  0  0  0  0  0  0  0  0  0  0  0
    3.4494  -15.4067    0.0000 N   0  0  0  0  0  0  0  0  0  0  0  0
    4.2249  -15.1253    0.0000 N   0  0  0  0  0  0  0  0  0  0  0  0
    3.4271  -10.4924    0.0000 O   0  0  0  0  0  0  0  0  0  0  0  0
    0.5659  -10.4934    0.0000 C   0  0  0  0  0  0  0  0  0  0  0  0
   -0.1482  -10.0804    0.0000 C   0  0  0  0  0  0  0  0  0  0  0  0
   -0.8630  -10.4923    0.0000 C   0  0  0  0  0  0  0  0  0  0  0  0
   -1.5771  -10.0792    0.0000 C   0  0  0  0  0  0  0  0  0  0  0  0
    1.9913   -8.0164    0.0000 C   0  0  0  0  0  0  0  0  0  0  0  0
    3.4221   -8.8353    0.0000 C   0  0  0  0  0  0  0  0  0  0  0  0
    4.1381   -9.2451    0.0000 C   0  0  0  0  0  0  0  0  0  0  0  0
    4.1403  -10.0701    0.0000 S   0  0  0  0  0  0  0  0  0  0  0  0
    4.8683   -8.0548    0.0000 C   0  0  0  0  0  0  0  0  0  0  0  0
    5.5062   -7.5335    0.0000 C   0  0  0  0  0  0  0  0  0  0  0  0
    6.3097   -7.7045    0.0000 C   0  0  0  0  0  0  0  0  0  0  0  0
    5.5327   -9.3849    0.0000 C   0  0  0  0  0  0  0  0  0  0  0  0
    6.6812   -8.4462    0.0000 C   0  0  0  0  0  0  0  0  0  0  0  0
    6.3330   -9.1934    0.0000 C   0  0  0  0  0  0  0  0  0  0  0  0
 20 15  2  0
 12 15  1  0
 24 25  1  0
  5  6  1  0
 10 11  2  0
 22 23  1  0
  3  4  1  0
 11 12  1  0
  6  7  2  0
 21 22  2  0
 23 24  2  0
 25 21  1  0
 16 21  1  0
 12 13  2  0
  5 26  2  0
  7  2  1  0
  3 27  1  0
 13 14  1  0
 27 28  1  0
 14  9  2  0
 28 29  1  0
  2  3  2  0
 29 30  1  0
  4  8  1  0
  7 31  1  0
 15 16  1  0
  6 32  1  0
  4  5  1  0
 32 33  1  0
 33  1  1  0
 16 17  2  0
 33 34  2  0
  8  9  1  0
  1 35  1  0
 17 18  1  0
 35 36  1  0
 36 37  1  0
 37 39  1  0
  1 38  1  0
 18 19  2  0
  9 10  1  0
 38 40  1  0
 19 20  1  0
 39 40  1  0
M  END
>  <From>  (1) 
www.bindingDB.org

>  <BindingDB Reactant_set_id>  (1) 
50718747

>  <Ligand InChI>  (1) 
InChI=1S/C31H37N7OS/c1-3-4-13-28-32-22(2)27(20-29(40)37-18-9-5-6-10-19-37)31(39)38(28)21-23-14-16-24(17-15-23)25-11-7-8-12-26(25)30-33-35-36-34-30/h7-8,11-12,14-17H,3-6,9-10,13,18-21H2,1-2H3,(H,33,34,35,36)

>  <Ligand InChI Key>  (1) 
HWBYVHDUKQDROI-UHFFFAOYSA-N

>  <BindingDB MonomerID>  (1) 
50364575

>  <BindingDB Ligand Name>  (1) 
CHEMBL1951145

>  <Target Name>  (1) 
Type-1 angiotensin II receptor

>  <Target Source Organism According to Curator or DataSource>  (1) 
Oryctolagus cuniculus

>  <Ki (nM)>  (1) 


>  <IC50 (nM)>  (1) 
 6.11

>  <Kd (nM)>  (1) 


>  <EC50 (nM)>  (1) 


>  <kon (M-1-s-1)>  (1) 


>  <koff (s-1)>  (1) 


>  <pH>  (1) 


>  <Temp C>  (1) 


>  <Curation/DataSource>  (1) 
ChEMBL

>  <Article DOI>  (1) 
10.1016/j.bmcl.2011.12.116

>  <BindingDB Entry DOI>  (1) 
10.7270/Q22R3S48

>  <PMID>  (1) 
22264484

>  <PubChem AID>  (1) 


>  <Patent Number>  (1) 


>  <Authors>  (1) 
Kim, TW; Yoo, BW; Lee, JK; Kim, JH; Lee, KT; Chi, YH; Lee, JY

>  <Institution>  (1) 
Kyung Hee University

>  <Link to Ligand in BindingDB>  (1) 
http://www.bindingdb.org/bind/chemsearch/marvin/MolStructure.jsp?monomerid=50364575

>  <Link to Ligand-Target Pair in BindingDB>  (1) 
http://www.bindingdb.org/jsp/dbsearch/PrimarySearch_ki.jsp?energyterm=kJ/mole&tag=r21&monomerid=50364575&enzyme=Type-1+angiotensin+II+receptor&column=ki&startPg=0&Increment=50&submit=Search

>  <Ligand HET ID in PDB>  (1) 


>  <PDB ID(s) for Ligand-Target Complex>  (1) 


>  <PubChem CID of Ligand>  (1) 
57393229

>  <PubChem SID of Ligand>  (1) 
136968637

>  <ChEBI ID of Ligand>  (1) 


>  <ChEMBL ID of Ligand>  (1) 
CHEMBL1951145

>  <DrugBank ID of Ligand>  (1) 


>  <IUPHAR_GRAC ID of Ligand>  (1) 


>  <KEGG ID of Ligand>  (1) 


>  <ZINC ID of Ligand>  (1) 
ZINC73256861

>  <Number of Protein Chains in Target (bigger than 1 implies a multichain complex)>  (1) 
1

>  <BindingDB Target Chain Sequence>  (1) 
MMLNSSTEDGIKRIQDDCPKAGRHNYIFVMIPTLYSIIFVVGIFGNSLAVIVIYFYMKLKTVASVFLLNLALADLCFLLTLPLWAVYTAMEYRWPFGNYLCKIASASVSFNLYASVFLLTCLSIDRYLAIVHPMKSRLRRTMLVAKVTCIIIWLLAGLASLPAIIHRNVFFIENTNITVCAFHYESQNSTLPIGLGLTKNILGFLFPFLIILTSYTLIWKALKKAYEIQKNKPRNDDIFKIIMAIVLFFFFSWVPHQIFTFLDVLIQLGVIHDCRIADIVDTAMPITICIAYFNNCLNPLFYGFLGKKFKKYFLQLLKYIPPKAKSHSNLSTKMSTLSYRPSDNVSSSSKKPVPCFEVE

>  <PDB ID(s) of Target Chain>  (1) 
6DO1,6OS0,6OS1,6OS2

>  <UniProt (SwissProt) Recommended Name of Target Chain>  (1) 
Type-1 angiotensin II receptor

>  <UniProt (SwissProt) Entry Name of Target Chain>  (1) 
AGTR1_RABIT

>  <UniProt (SwissProt) Primary ID of Target Chain>  (1) 
P34976

>  <UniProt (SwissProt) Secondary ID(s) of Target Chain>  (1) 


>  <UniProt (SwissProt) Alternative ID(s) of Target Chain>  (1) 


>  <UniProt (TrEMBL) Submitted Name of Target Chain>  (1) 


>  <UniProt (TrEMBL) Entry Name of Target Chain>  (1) 


>  <UniProt (TrEMBL) Primary ID of Target Chain>  (1) 


>  <UniProt (TrEMBL) Secondary ID(s) of Target Chain>  (1) 


>  <UniProt (TrEMBL) Alternative ID(s) of Target Chain>  (1) 


$$$$
