
     RDKit          2D

 39 43  0  0  0  0  0  0  0  0999 V2000
    1.2948   -2.6870    0.0000 N   0  0  0  0  0  0  0  0  0  0  0  0
    1.3636   -1.3464    0.0000 N   0  0  0  0  0  0  0  0  0  0  0  0
    1.8218   -2.0453    0.0000 C   0  0  0  0  0  0  0  0  0  0  0  0
    0.5729   -1.5698    0.0000 C   0  0  0  0  0  0  0  0  0  0  0  0
    0.5328   -2.3948    0.0000 C   0  0  0  0  0  0  0  0  0  0  0  0
   -1.5067   -0.2292    0.0000 C   0  0  0  0  0  0  0  0  0  0  0  0
    4.8697   -4.7494    0.0000 C   0  0  0  0  0  0  0  0  0  0  0  0
    4.1593   -5.1619    0.0000 C   0  0  0  0  0  0  0  0  0  0  0  0
    4.8639   -3.9244    0.0000 C   0  0  0  0  0  0  0  0  0  0  0  0
   -0.1203   -1.1229    0.0000 C   0  0  0  0  0  0  0  0  0  0  0  0
   -1.5468   -1.0542    0.0000 N   0  0  0  0  0  0  0  0  0  0  0  0
    1.2948   -3.5119    0.0000 C   0  0  0  0  0  0  0  0  0  0  0  0
   -0.2005   -2.7729    0.0000 C   0  0  0  0  0  0  0  0  0  0  0  0
   -2.1999    0.2177    0.0000 N   0  0  0  0  0  0  0  0  0  0  0  0
    3.4432   -4.7494    0.0000 C   0  0  0  0  0  0  0  0  0  0  0  0
   -0.8536   -1.5011    0.0000 C   0  0  0  0  0  0  0  0  0  0  0  0
   -0.7734    0.1489    0.0000 O   0  0  0  0  0  0  0  0  0  0  0  0
    4.1479   -3.5234    0.0000 O   0  0  0  0  0  0  0  0  0  0  0  0
    2.7213   -5.1619    0.0000 C   0  0  0  0  0  0  0  0  0  0  0  0
    3.4432   -3.9244    0.0000 C   0  0  0  0  0  0  0  0  0  0  0  0
   -0.8880   -2.3260    0.0000 C   0  0  0  0  0  0  0  0  0  0  0  0
    2.0167   -3.9244    0.0000 C   0  0  0  0  0  0  0  0  0  0  0  0
    5.5744   -3.5119    0.0000 O   0  0  0  0  0  0  0  0  0  0  0  0
    2.6354   -2.0854    0.0000 C   0  0  0  0  0  0  0  0  0  0  0  0
    2.7213   -3.5119    0.0000 C   0  0  0  0  0  0  0  0  0  0  0  0
    2.0167   -4.7494    0.0000 C   0  0  0  0  0  0  0  0  0  0  0  0
   -2.1598    1.0426    0.0000 C   0  0  0  0  0  0  0  0  0  0  0  0
    5.5858   -5.1561    0.0000 C   0  0  0  0  0  0  0  0  0  0  0  0
    4.1593   -5.9869    0.0000 C   0  0  0  0  0  0  0  0  0  0  0  0
   -1.4265    1.4208    0.0000 C   0  0  0  0  0  0  0  0  0  0  0  0
   -2.8531    1.4895    0.0000 C   0  0  0  0  0  0  0  0  0  0  0  0
    3.0823   -1.3922    0.0000 C   0  0  0  0  0  0  0  0  0  0  0  0
    3.9072   -1.4323    0.0000 C   0  0  0  0  0  0  0  0  0  0  0  0
    4.8697   -6.3994    0.0000 C   0  0  0  0  0  0  0  0  0  0  0  0
    5.5916   -5.9869    0.0000 C   0  0  0  0  0  0  0  0  0  0  0  0
    4.3541   -0.7390    0.0000 C   0  0  0  0  0  0  0  0  0  0  0  0
   -2.8129    2.3145    0.0000 C   0  0  0  0  0  0  0  0  0  0  0  0
   -1.3864    2.2343    0.0000 C   0  0  0  0  0  0  0  0  0  0  0  0
   -2.0739    2.6926    0.0000 C   0  0  0  0  0  0  0  0  0  0  0  0
  2  3  2  0
  3  1  1  0
  4  5  2  0
  5  1  1  0
  6 11  1  0
  7  8  2  0
  8 15  1  0
  9  7  1  0
 10  4  1  0
 11 16  1  0
 12  1  1  0
 13  5  1  0
 14  6  1  0
 15 19  2  0
 16 21  1  0
 17  6  2  0
 18  9  2  0
 19 26  1  0
 20 25  2  0
 21 13  2  0
 22 12  1  0
 23  9  1  0
 24  3  1  0
 25 22  1  0
 26 22  2  0
 27 14  1  0
 28  7  1  0
 29  8  1  0
 30 27  1  0
 31 27  1  0
 32 24  1  0
 33 32  1  0
 34 29  2  0
 35 34  1  0
 36 33  1  0
 37 31  1  0
 38 30  1  0
 39 37  1  0
  4  2  1  0
 15 20  1  0
 16 10  2  0
 28 35  2  0
 39 38  1  0
M  END
>  <From>  (1) 
www.bindingDB.org

>  <BindingDB Reactant_set_id>  (1) 
50069233

>  <Ligand InChI>  (1) 
InChI=1S/C32H36N4O3/c1-2-3-13-30-35-28-20-25(34-32(39)33-24-9-5-4-6-10-24)18-19-29(28)36(30)21-22-14-16-23(17-15-22)26-11-7-8-12-27(26)31(37)38/h7-8,11-12,14-20,24H,2-6,9-10,13,21H2,1H3,(H,37,38)(H2,33,34,39)

>  <Ligand InChI Key>  (1) 
RRCSMDMRTYTELL-UHFFFAOYSA-N

>  <BindingDB MonomerID>  (1) 
50043266

>  <BindingDB Ligand Name>  (1) 
4'-[2-Butyl-5-(3-cyclohexyl-ureido)-benzoimidazol-1-ylmethyl]-biphenyl-2-carboxylic acid::CHEMBL336130

>  <Target Name>  (1) 
Type-1 angiotensin II receptor B

>  <Target Source Organism According to Curator or DataSource>  (1) 
Rattus

>  <Ki (nM)>  (1) 


>  <IC50 (nM)>  (1) 
 800

>  <Kd (nM)>  (1) 


>  <EC50 (nM)>  (1) 


>  <kon (M-1-s-1)>  (1) 


>  <koff (s-1)>  (1) 


>  <pH>  (1) 


>  <Temp C>  (1) 


>  <Curation/DataSource>  (1) 
ChEMBL

>  <Article DOI>  (1) 
10.1021/jm00077a007

>  <BindingDB Entry DOI>  (1) 
10.7270/Q2V98746

>  <PMID>  (1) 
8258826

>  <PubChem AID>  (1) 


>  <Patent Number>  (1) 


>  <Authors>  (1) 
Ries, UJ; Mihm, G; Narr, B; Hasselbach, KM; Wittneben, H; Entzeroth, M; van Meel, JC; Wienen, W; Hauel, NH

>  <Institution>  (1) 
Dr. Karl Thomae GmbH

>  <Link to Ligand in BindingDB>  (1) 
http://www.bindingdb.org/bind/chemsearch/marvin/MolStructure.jsp?monomerid=50043266

>  <Link to Ligand-Target Pair in BindingDB>  (1) 
http://www.bindingdb.org/jsp/dbsearch/PrimarySearch_ki.jsp?energyterm=kJ/mole&tag=r21&monomerid=50043266&enzyme=Type-1+angiotensin+II+receptor+B&column=ki&startPg=0&Increment=50&submit=Search

>  <Ligand HET ID in PDB>  (1) 


>  <PDB ID(s) for Ligand-Target Complex>  (1) 


>  <PubChem CID of Ligand>  (1) 
11756569

>  <PubChem SID of Ligand>  (1) 
103974735

>  <ChEBI ID of Ligand>  (1) 


>  <ChEMBL ID of Ligand>  (1) 
CHEMBL336130

>  <DrugBank ID of Ligand>  (1) 


>  <IUPHAR_GRAC ID of Ligand>  (1) 


>  <KEGG ID of Ligand>  (1) 


>  <ZINC ID of Ligand>  (1) 
ZINC13732039

>  <Number of Protein Chains in Target (bigger than 1 implies a multichain complex)>  (1) 
1

>  <BindingDB Target Chain Sequence>  (1) 
MTLNSSTEDGIKRIQDDCPKAGRHNYIFVMIPTLYSIIFVVGIFGNSLVVIVIYFYMKLKTVASVFLLNLALADLCFLLTLPLWAVYTAMEYRWPFGNHLCKIASASVSFNLYASVFLLTCLSIDRYLAIVHPMKSRLRRTMLVAKVTCIIIWLMAGLASLPAVIYRNVYFIENTNITVCAFHYESQNSTLPIGLGLTKNILGFVFPFLIILTSYTLIWKALKKAYKIQKNTPRNDDIFRIIMAIVLFFFFSWVPHQIFTFLDVLIQLGIIRDCEIADIVDTAMPITICIAYFNNCLNPLFYGFLGKKFKKYFLQLLKYIPPTAKSHAGLSTKMSTLSYRPSDNMSSSAKKSASFFEVE

>  <PDB ID(s) of Target Chain>  (1) 


>  <UniProt (SwissProt) Recommended Name of Target Chain>  (1) 
Type-1 angiotensin II receptor B

>  <UniProt (SwissProt) Entry Name of Target Chain>  (1) 
AGTRB_RAT

>  <UniProt (SwissProt) Primary ID of Target Chain>  (1) 
P29089

>  <UniProt (SwissProt) Secondary ID(s) of Target Chain>  (1) 


>  <UniProt (SwissProt) Alternative ID(s) of Target Chain>  (1) 


>  <UniProt (TrEMBL) Submitted Name of Target Chain>  (1) 


>  <UniProt (TrEMBL) Entry Name of Target Chain>  (1) 


>  <UniProt (TrEMBL) Primary ID of Target Chain>  (1) 


>  <UniProt (TrEMBL) Secondary ID(s) of Target Chain>  (1) 


>  <UniProt (TrEMBL) Alternative ID(s) of Target Chain>  (1) 


$$$$
