
     RDKit          2D

 46 50  0  0  0  0  0  0  0  0999 V2000
    7.4120   -7.5151    0.0000 N   0  0  0  0  0  0  0  0  0  0  0  0
    6.9996   -8.7867    0.0000 N   0  0  0  0  0  0  0  0  0  0  0  0
   10.5738  -10.0239    0.0000 S   0  0  0  0  0  0  0  0  0  0  0  0
    7.6697   -8.3055    0.0000 C   0  0  0  0  0  0  0  0  0  0  0  0
    6.5872   -7.5151    0.0000 N   0  0  0  0  0  0  0  0  0  0  0  0
   11.2611   -7.9447    0.0000 C   0  0  0  0  0  0  0  0  0  0  0  0
   10.5566   -9.1991    0.0000 N   0  0  0  0  0  0  0  0  0  0  0  0
    6.3294   -8.3055    0.0000 C   0  0  0  0  0  0  0  0  0  0  0  0
   11.9313   -7.4635    0.0000 C   0  0  0  0  0  0  0  0  0  0  0  0
   11.2783   -8.7695    0.0000 C   0  0  0  0  0  0  0  0  0  0  0  0
   11.6736   -6.6731    0.0000 S   0  0  0  0  0  0  0  0  0  0  0  0
    7.5666   -6.1060    0.0000 C   0  0  0  0  0  0  0  0  0  0  0  0
    7.8931   -6.8449    0.0000 C   0  0  0  0  0  0  0  0  0  0  0  0
    6.7418   -6.0201    0.0000 C   0  0  0  0  0  0  0  0  0  0  0  0
   10.8487   -6.6731    0.0000 C   0  0  0  0  0  0  0  0  0  0  0  0
   10.5738  -10.8315    0.0000 C   0  0  0  0  0  0  0  0  0  0  0  0
   10.5910   -7.4807    0.0000 C   0  0  0  0  0  0  0  0  0  0  0  0
    9.8521  -11.2611    0.0000 C   0  0  0  0  0  0  0  0  0  0  0  0
    6.9996   -9.6115    0.0000 C   0  0  0  0  0  0  0  0  0  0  0  0
    9.7490  -10.0239    0.0000 O   0  0  0  0  0  0  0  0  0  0  0  0
   11.3986  -10.0239    0.0000 O   0  0  0  0  0  0  0  0  0  0  0  0
    8.4602   -8.5461    0.0000 O   0  0  0  0  0  0  0  0  0  0  0  0
    9.1475  -10.8487    0.0000 C   0  0  0  0  0  0  0  0  0  0  0  0
   11.9829   -9.1819    0.0000 O   0  0  0  0  0  0  0  0  0  0  0  0
   12.7218   -7.7041    0.0000 Cl  0  0  0  0  0  0  0  0  0  0  0  0
    6.1232   -6.6387    0.0000 F   0  0  0  0  0  0  0  0  0  0  0  0
    5.9857   -5.9514    0.0000 F   0  0  0  0  0  0  0  0  0  0  0  0
    6.2607   -5.2984    0.0000 F   0  0  0  0  0  0  0  0  0  0  0  0
   10.3676   -6.0029    0.0000 Cl  0  0  0  0  0  0  0  0  0  0  0  0
    8.4258  -11.2611    0.0000 C   0  0  0  0  0  0  0  0  0  0  0  0
    9.1475  -10.0067    0.0000 C   0  0  0  0  0  0  0  0  0  0  0  0
    7.7213  -10.0239    0.0000 C   0  0  0  0  0  0  0  0  0  0  0  0
    5.5561   -8.5461    0.0000 C   0  0  0  0  0  0  0  0  0  0  0  0
    8.0478   -5.4358    0.0000 C   0  0  0  0  0  0  0  0  0  0  0  0
    8.4258   -9.6115    0.0000 C   0  0  0  0  0  0  0  0  0  0  0  0
    7.7213  -10.8487    0.0000 C   0  0  0  0  0  0  0  0  0  0  0  0
    8.7179   -6.9308    0.0000 C   0  0  0  0  0  0  0  0  0  0  0  0
   11.2783  -11.2440    0.0000 C   0  0  0  0  0  0  0  0  0  0  0  0
    9.8521  -12.0860    0.0000 C   0  0  0  0  0  0  0  0  0  0  0  0
    4.9375   -7.9962    0.0000 C   0  0  0  0  0  0  0  0  0  0  0  0
    4.1471   -8.2540    0.0000 C   0  0  0  0  0  0  0  0  0  0  0  0
    8.8554   -5.5218    0.0000 C   0  0  0  0  0  0  0  0  0  0  0  0
    9.1991   -6.2779    0.0000 C   0  0  0  0  0  0  0  0  0  0  0  0
   10.5738  -12.4984    0.0000 C   0  0  0  0  0  0  0  0  0  0  0  0
   11.2955  -12.0688    0.0000 C   0  0  0  0  0  0  0  0  0  0  0  0
    3.5456   -7.7041    0.0000 C   0  0  0  0  0  0  0  0  0  0  0  0
  2  4  1  0
  3 16  1  0
  4  1  1  0
  5  1  1  0
  6 10  1  0
  7  3  1  0
  8  5  2  0
  9  6  2  0
 10  7  1  0
 11  9  1  0
 12 13  2  0
 13  1  1  0
 14 12  1  0
 15 17  2  0
 16 18  1  0
 17  6  1  0
 18 23  1  0
 19  2  1  0
 20  3  2  0
 21  3  2  0
 22  4  2  0
 23 31  2  0
 24 10  2  0
 25  9  1  0
 26 14  1  0
 27 14  1  0
 28 14  1  0
 29 15  1  0
 30 36  2  0
 31 35  1  0
 32 19  1  0
 33  8  1  0
 34 12  1  0
 35 32  2  0
 36 32  1  0
 37 13  1  0
 38 16  2  0
 39 18  2  0
 40 33  1  0
 41 40  1  0
 42 43  1  0
 43 37  2  0
 44 39  1  0
 45 44  2  0
 46 41  1  0
  2  8  1  0
 42 34  2  0
 30 23  1  0
 45 38  1  0
 15 11  1  0
M  END
>  <From>  (1) 
www.bindingDB.org

>  <BindingDB Reactant_set_id>  (1) 
50036535

>  <Ligand InChI>  (1) 
InChI=1S/C31H25Cl2F3N4O4S2/c1-2-3-12-27-37-40(24-10-6-5-9-23(24)31(34,35)36)30(42)39(27)18-19-13-15-20(16-14-19)21-8-4-7-11-25(21)46(43,44)38-29(41)22-17-26(32)45-28(22)33/h4-11,13-17H,2-3,12,18H2,1H3,(H,38,41)

>  <Ligand InChI Key>  (1) 
IXSJGZOXWQGYRR-UHFFFAOYSA-N

>  <BindingDB MonomerID>  (1) 
50039861

>  <BindingDB Ligand Name>  (1) 
4'-[3-Butyl-5-oxo-1-(2-trifluoromethyl-phenyl)-1,5-dihydro-[1,2,4]triazol-4-ylmethyl]-biphenyl-2-sulfonic acid (2,5-dichloro-thiophene-3-carbonyl)-amide; compound with dichloro-methane::CHEMBL97271

>  <Target Name>  (1) 
Type-1 angiotensin II receptor

>  <Target Source Organism According to Curator or DataSource>  (1) 
Oryctolagus cuniculus

>  <Ki (nM)>  (1) 


>  <IC50 (nM)>  (1) 
 2.6

>  <Kd (nM)>  (1) 


>  <EC50 (nM)>  (1) 


>  <kon (M-1-s-1)>  (1) 


>  <koff (s-1)>  (1) 


>  <pH>  (1) 


>  <Temp C>  (1) 


>  <Curation/DataSource>  (1) 
ChEMBL

>  <Article DOI>  (1) 
10.1021/jm00043a020

>  <BindingDB Entry DOI>  (1) 
10.7270/Q2M907QM

>  <PMID>  (1) 
8064808

>  <PubChem AID>  (1) 


>  <Patent Number>  (1) 


>  <Authors>  (1) 
Ashton, WT; Chang, LL; Flanagan, KL; Hutchins, SM; Naylor, EM; Chakravarty, PK; Patchett, AA; Greenlee, WJ; Chen, TB; Faust, KA

>  <Institution>  (1) 
Merck Research Laboratories

>  <Link to Ligand in BindingDB>  (1) 
http://www.bindingdb.org/bind/chemsearch/marvin/MolStructure.jsp?monomerid=50039861

>  <Link to Ligand-Target Pair in BindingDB>  (1) 
http://www.bindingdb.org/jsp/dbsearch/PrimarySearch_ki.jsp?energyterm=kJ/mole&tag=r21&monomerid=50039861&enzyme=Type-1+angiotensin+II+receptor&column=ki&startPg=0&Increment=50&submit=Search

>  <Ligand HET ID in PDB>  (1) 


>  <PDB ID(s) for Ligand-Target Complex>  (1) 


>  <PubChem CID of Ligand>  (1) 
10349845

>  <PubChem SID of Ligand>  (1) 
103947056

>  <ChEBI ID of Ligand>  (1) 


>  <ChEMBL ID of Ligand>  (1) 
CHEMBL97271

>  <DrugBank ID of Ligand>  (1) 


>  <IUPHAR_GRAC ID of Ligand>  (1) 


>  <KEGG ID of Ligand>  (1) 


>  <ZINC ID of Ligand>  (1) 
ZINC26719346

>  <Number of Protein Chains in Target (bigger than 1 implies a multichain complex)>  (1) 
1

>  <BindingDB Target Chain Sequence>  (1) 
MMLNSSTEDGIKRIQDDCPKAGRHNYIFVMIPTLYSIIFVVGIFGNSLAVIVIYFYMKLKTVASVFLLNLALADLCFLLTLPLWAVYTAMEYRWPFGNYLCKIASASVSFNLYASVFLLTCLSIDRYLAIVHPMKSRLRRTMLVAKVTCIIIWLLAGLASLPAIIHRNVFFIENTNITVCAFHYESQNSTLPIGLGLTKNILGFLFPFLIILTSYTLIWKALKKAYEIQKNKPRNDDIFKIIMAIVLFFFFSWVPHQIFTFLDVLIQLGVIHDCRIADIVDTAMPITICIAYFNNCLNPLFYGFLGKKFKKYFLQLLKYIPPKAKSHSNLSTKMSTLSYRPSDNVSSSSKKPVPCFEVE

>  <PDB ID(s) of Target Chain>  (1) 
6DO1,6OS0,6OS1,6OS2

>  <UniProt (SwissProt) Recommended Name of Target Chain>  (1) 
Type-1 angiotensin II receptor

>  <UniProt (SwissProt) Entry Name of Target Chain>  (1) 
AGTR1_RABIT

>  <UniProt (SwissProt) Primary ID of Target Chain>  (1) 
P34976

>  <UniProt (SwissProt) Secondary ID(s) of Target Chain>  (1) 


>  <UniProt (SwissProt) Alternative ID(s) of Target Chain>  (1) 


>  <UniProt (TrEMBL) Submitted Name of Target Chain>  (1) 


>  <UniProt (TrEMBL) Entry Name of Target Chain>  (1) 


>  <UniProt (TrEMBL) Primary ID of Target Chain>  (1) 


>  <UniProt (TrEMBL) Secondary ID(s) of Target Chain>  (1) 


>  <UniProt (TrEMBL) Alternative ID(s) of Target Chain>  (1) 


$$$$
