
     RDKit          2D

 32 37  0  0  0  0  0  0  0  0999 V2000
   16.3375   -2.4986    0.0000 C   0  0  0  0  0  0  0  0  0  0  0  0
   17.0540   -2.0852    0.0000 N   0  0  0  0  0  0  0  0  0  0  0  0
   17.0510   -1.2547    0.0000 C   0  0  0  0  0  0  0  0  0  0  0  0
   16.3357   -0.8455    0.0000 C   0  0  0  0  0  0  0  0  0  0  0  0
   15.6226   -2.0857    0.0000 C   0  0  0  0  0  0  0  0  0  0  0  0
   15.6239   -1.2568    0.0000 C   0  0  0  0  0  0  0  0  0  0  0  0
   14.8359   -0.9994    0.0000 N   0  0  0  0  0  0  0  0  0  0  0  0
   14.3476   -1.6693    0.0000 C   0  0  0  0  0  0  0  0  0  0  0  0
   14.8339   -2.3406    0.0000 N   0  0  0  0  0  0  0  0  0  0  0  0
   13.5226   -1.6681    0.0000 C   0  0  0  0  0  0  0  0  0  0  0  0
   13.1111   -0.9530    0.0000 C   0  0  0  0  0  0  0  0  0  0  0  0
   14.5761   -3.1251    0.0000 C   0  0  0  0  0  0  0  0  0  0  0  0
   14.5742   -4.4601    0.0000 C   0  0  0  0  0  0  0  0  0  0  0  0
   15.0600   -3.7933    0.0000 C   0  0  0  0  0  0  0  0  0  0  0  0
   13.7899   -4.2040    0.0000 C   0  0  0  0  0  0  0  0  0  0  0  0
   13.7930   -3.3805    0.0000 C   0  0  0  0  0  0  0  0  0  0  0  0
   13.0824   -2.9679    0.0000 C   0  0  0  0  0  0  0  0  0  0  0  0
   12.3684   -3.3777    0.0000 C   0  0  0  0  0  0  0  0  0  0  0  0
   12.3694   -4.2044    0.0000 C   0  0  0  0  0  0  0  0  0  0  0  0
   13.0805   -4.6131    0.0000 C   0  0  0  0  0  0  0  0  0  0  0  0
   11.6558   -4.6198    0.0000 C   0  0  0  0  0  0  0  0  0  0  0  0
   10.9404   -4.2067    0.0000 C   0  0  0  0  0  0  0  0  0  0  0  0
   10.2270   -4.6195    0.0000 C   0  0  0  0  0  0  0  0  0  0  0  0
   10.2278   -5.4454    0.0000 C   0  0  0  0  0  0  0  0  0  0  0  0
   10.9479   -5.8567    0.0000 C   0  0  0  0  0  0  0  0  0  0  0  0
   11.6583   -5.4415    0.0000 C   0  0  0  0  0  0  0  0  0  0  0  0
   12.3755   -5.8515    0.0000 C   0  0  0  0  0  0  0  0  0  0  0  0
   12.4653   -6.6715    0.0000 N   0  0  0  0  0  0  0  0  0  0  0  0
   13.2729   -6.8397    0.0000 N   0  0  0  0  0  0  0  0  0  0  0  0
   13.6825   -6.1234    0.0000 N   0  0  0  0  0  0  0  0  0  0  0  0
   13.1277   -5.5128    0.0000 N   0  0  0  0  0  0  0  0  0  0  0  0
   16.3373   -3.3236    0.0000 O   0  0  0  0  0  0  0  0  0  0  0  0
  5  1  1  0
  1  2  1  0
  2  3  1  0
  3  4  2  0
  4  6  1  0
  5  6  2  0
  6  7  1  0
  7  8  2  0
  8  9  1  0
  9  5  1  0
  8 10  1  0
 10 11  1  0
 12 16  1  0
 15 13  1  0
 13 14  1  0
 12 14  1  0
 12  9  1  1
 15 16  2  0
 16 17  1  0
 17 18  2  0
 18 19  1  0
 19 20  2  0
 20 15  1  0
 21 22  2  0
 22 23  1  0
 23 24  2  0
 24 25  1  0
 25 26  2  0
 26 21  1  0
 19 21  1  0
 27 28  1  0
 28 29  1  0
 29 30  2  0
 30 31  1  0
 31 27  2  0
 26 27  1  0
  1 32  2  0
M  END
>  <From>  (1) 
www.bindingDB.org

>  <BindingDB Reactant_set_id>  (1) 
51045850

>  <Ligand InChI>  (1) 
InChI=1S/C24H21N7O/c1-2-21-26-19-11-12-25-24(32)22(19)31(21)20-10-8-15-13-14(7-9-17(15)20)16-5-3-4-6-18(16)23-27-29-30-28-23/h3-7,9,11-13,20H,2,8,10H2,1H3,(H,25,32)(H,27,28,29,30)/t20-/m0/s1

>  <Ligand InChI Key>  (1) 
IHAFCRASQNQUNB-FQEVSTJZSA-N

>  <BindingDB MonomerID>  (1) 
50426775

>  <BindingDB Ligand Name>  (1) 
CHEMBL2322177

>  <Target Name>  (1) 
Type-1 angiotensin II receptor

>  <Target Source Organism According to Curator or DataSource>  (1) 
Homo sapiens

>  <Ki (nM)>  (1) 


>  <IC50 (nM)>  (1) 
 593

>  <Kd (nM)>  (1) 


>  <EC50 (nM)>  (1) 


>  <kon (M-1-s-1)>  (1) 


>  <koff (s-1)>  (1) 


>  <pH>  (1) 


>  <Temp C>  (1) 


>  <Curation/DataSource>  (1) 
ChEMBL

>  <Article DOI>  (1) 
10.1016/j.bmcl.2012.11.088

>  <BindingDB Entry DOI>  (1) 
10.7270/Q2542PW7

>  <PMID>  (1) 
23265881

>  <PubChem AID>  (1) 


>  <Patent Number>  (1) 


>  <Authors>  (1) 
Casimiro-Garcia, A; Heemstra, RJ; Bigge, CF; Chen, J; Ciske, FA; Davis, JA; Ellis, T; Esmaeil, N; Flynn, D; Han, S; Jalaie, M; Ohren, JF; Powell, NA

>  <Institution>  (1) 
Pfizer Inc

>  <Link to Ligand in BindingDB>  (1) 
http://www.bindingdb.org/bind/chemsearch/marvin/MolStructure.jsp?monomerid=50426775

>  <Link to Ligand-Target Pair in BindingDB>  (1) 
http://www.bindingdb.org/jsp/dbsearch/PrimarySearch_ki.jsp?energyterm=kJ/mole&tag=r21&monomerid=50426775&enzyme=Type-1+angiotensin+II+receptor&column=ki&startPg=0&Increment=50&submit=Search

>  <Ligand HET ID in PDB>  (1) 


>  <PDB ID(s) for Ligand-Target Complex>  (1) 


>  <PubChem CID of Ligand>  (1) 
71521194

>  <PubChem SID of Ligand>  (1) 
164155650

>  <ChEBI ID of Ligand>  (1) 


>  <ChEMBL ID of Ligand>  (1) 
CHEMBL2322177

>  <DrugBank ID of Ligand>  (1) 


>  <IUPHAR_GRAC ID of Ligand>  (1) 


>  <KEGG ID of Ligand>  (1) 


>  <ZINC ID of Ligand>  (1) 
ZINC95581014

>  <Number of Protein Chains in Target (bigger than 1 implies a multichain complex)>  (1) 
1

>  <BindingDB Target Chain Sequence>  (1) 
MILNSSTEDGIKRIQDDCPKAGRHNYIFVMIPTLYSIIFVVGIFGNSLVVIVIYFYMKLKTVASVFLLNLALADLCFLLTLPLWAVYTAMEYRWPFGNYLCKIASASVSFNLYASVFLLTCLSIDRYLAIVHPMKSRLRRTMLVAKVTCIIIWLLAGLASLPAIIHRNVFFIENTNITVCAFHYESQNSTLPIGLGLTKNILGFLFPFLIILTSYTLIWKALKKAYEIQKNKPRNDDIFKIIMAIVLFFFFSWIPHQIFTFLDVLIQLGIIRDCRIADIVDTAMPITICIAYFNNCLNPLFYGFLGKKFKRYFLQLLKYIPPKAKSHSNLSTKMSTLSYRPSDNVSSSTKKPAPCFEVE

>  <PDB ID(s) of Target Chain>  (1) 
6DO1,6OS0,6OS1,6OS2

>  <UniProt (SwissProt) Recommended Name of Target Chain>  (1) 
Type-1 angiotensin II receptor

>  <UniProt (SwissProt) Entry Name of Target Chain>  (1) 
AGTR1_HUMAN

>  <UniProt (SwissProt) Primary ID of Target Chain>  (1) 
P30556

>  <UniProt (SwissProt) Secondary ID(s) of Target Chain>  (1) 
Q13725 Q8TBK4

>  <UniProt (SwissProt) Alternative ID(s) of Target Chain>  (1) 


>  <UniProt (TrEMBL) Submitted Name of Target Chain>  (1) 


>  <UniProt (TrEMBL) Entry Name of Target Chain>  (1) 


>  <UniProt (TrEMBL) Primary ID of Target Chain>  (1) 


>  <UniProt (TrEMBL) Secondary ID(s) of Target Chain>  (1) 


>  <UniProt (TrEMBL) Alternative ID(s) of Target Chain>  (1) 


$$$$
