
     RDKit          2D

 40 44  0  0  0  0  0  0  0  0999 V2000
    0.2422   -5.0521    0.0000 N   0  0  0  0  0  0  0  0  0  0  0  0
    0.9562   -4.6346    0.0000 C   0  0  0  0  0  0  0  0  0  0  0  0
    0.9562   -3.8121    0.0000 C   0  0  0  0  0  0  0  0  0  0  0  0
   -0.4718   -4.6346    0.0000 C   0  0  0  0  0  0  0  0  0  0  0  0
   -0.4718   -3.8079    0.0000 N   0  0  0  0  0  0  0  0  0  0  0  0
    3.8121   -6.2797    0.0000 C   0  0  0  0  0  0  0  0  0  0  0  0
    4.6513   -5.2526    0.0000 N   0  0  0  0  0  0  0  0  0  0  0  0
    4.6137   -6.0667    0.0000 N   0  0  0  0  0  0  0  0  0  0  0  0
    3.8830   -4.9603    0.0000 N   0  0  0  0  0  0  0  0  0  0  0  0
    0.2422   -3.3945    0.0000 C   0  0  0  0  0  0  0  0  0  0  0  0
    3.3612   -5.5991    0.0000 N   0  0  0  0  0  0  0  0  0  0  0  0
    3.8204   -7.1147    0.0000 C   0  0  0  0  0  0  0  0  0  0  0  0
    3.1106   -7.5323    0.0000 C   0  0  0  0  0  0  0  0  0  0  0  0
    0.2422   -5.8789    0.0000 C   0  0  0  0  0  0  0  0  0  0  0  0
    1.6702   -3.4070    0.0000 C   0  0  0  0  0  0  0  0  0  0  0  0
    1.6785   -5.0479    0.0000 O   0  0  0  0  0  0  0  0  0  0  0  0
    2.3967   -1.3403    0.0000 C   0  0  0  0  0  0  0  0  0  0  0  0
    2.3967   -2.1670    0.0000 N   0  0  0  0  0  0  0  0  0  0  0  0
    2.3841   -7.1189    0.0000 C   0  0  0  0  0  0  0  0  0  0  0  0
    1.6785   -2.5803    0.0000 C   0  0  0  0  0  0  0  0  0  0  0  0
    0.2505   -2.5720    0.0000 C   0  0  0  0  0  0  0  0  0  0  0  0
    3.1106   -0.9311    0.0000 O   0  0  0  0  0  0  0  0  0  0  0  0
    1.6702   -7.5323    0.0000 C   0  0  0  0  0  0  0  0  0  0  0  0
    2.3841   -6.2880    0.0000 C   0  0  0  0  0  0  0  0  0  0  0  0
    0.9562   -6.2880    0.0000 C   0  0  0  0  0  0  0  0  0  0  0  0
    0.9645   -2.1670    0.0000 C   0  0  0  0  0  0  0  0  0  0  0  0
   -1.1858   -5.0396    0.0000 C   0  0  0  0  0  0  0  0  0  0  0  0
    0.9562   -7.1189    0.0000 C   0  0  0  0  0  0  0  0  0  0  0  0
    1.6702   -5.8747    0.0000 C   0  0  0  0  0  0  0  0  0  0  0  0
    4.5344   -7.5198    0.0000 C   0  0  0  0  0  0  0  0  0  0  0  0
    3.1064   -8.3590    0.0000 C   0  0  0  0  0  0  0  0  0  0  0  0
    1.6827   -0.9269    0.0000 C   0  0  0  0  0  0  0  0  0  0  0  0
   -1.8997   -4.6263    0.0000 C   0  0  0  0  0  0  0  0  0  0  0  0
    1.6827   -0.0919    0.0000 C   0  0  0  0  0  0  0  0  0  0  0  0
   -2.6137   -5.0396    0.0000 C   0  0  0  0  0  0  0  0  0  0  0  0
    0.9687    0.3215    0.0000 C   0  0  0  0  0  0  0  0  0  0  0  0
    4.5386   -8.3548    0.0000 C   0  0  0  0  0  0  0  0  0  0  0  0
    3.8246   -8.7681    0.0000 C   0  0  0  0  0  0  0  0  0  0  0  0
   -3.3277   -4.6263    0.0000 C   0  0  0  0  0  0  0  0  0  0  0  0
    0.9770    1.1399    0.0000 C   0  0  0  0  0  0  0  0  0  0  0  0
  2  1  1  0
  3  2  1  0
  4  1  1  0
  5  4  2  0
  6 12  1  0
  7  8  1  0
  8  6  1  0
  9 11  1  0
 10  5  1  0
 11  6  2  0
 12 13  1  0
 13 19  1  0
 14  1  1  0
 15  3  2  0
 16  2  2  0
 17 18  1  0
 18 20  1  0
 19 24  2  0
 20 15  1  0
 21 10  2  0
 22 17  2  0
 23 28  2  0
 24 29  1  0
 25 14  1  0
 26 21  1  0
 27  4  1  0
 28 25  1  0
 29 25  2  0
 30 12  2  0
 31 13  2  0
 32 17  1  0
 33 27  1  0
 34 32  1  0
 35 33  1  0
 36 34  1  0
 37 38  2  0
 38 31  1  0
 39 35  1  0
 40 36  1  0
  3 10  1  0
 19 23  1  0
 20 26  2  0
 37 30  1  0
  9  7  2  0
M  END
>  <From>  (1) 
www.bindingDB.org

>  <BindingDB Reactant_set_id>  (1) 
50002317

>  <Ligand InChI>  (1) 
InChI=1S/C31H33N7O2/c1-3-5-11-28-33-27-18-17-23(32-29(39)12-6-4-2)19-26(27)31(40)38(28)20-21-13-15-22(16-14-21)24-9-7-8-10-25(24)30-34-36-37-35-30/h7-10,13-19H,3-6,11-12,20H2,1-2H3,(H,32,39)(H,34,35,36,37)

>  <Ligand InChI Key>  (1) 
IQIGBUKVWIOKAY-UHFFFAOYSA-N

>  <BindingDB MonomerID>  (1) 
50281927

>  <BindingDB Ligand Name>  (1) 
CHEMBL281846::Pentanoic acid {2-butyl-4-oxo-3-[2'-(1H-tetrazol-5-yl)-biphenyl-4-ylmethyl]-3,4-dihydro-quinazolin-6-yl}-amide::Pentanoic acid {2-butyl-4-oxo-3-[2'-(2H-tetrazol-5-yl)-biphenyl-4-ylmethyl]-3,4-dihydro-quinazolin-6-yl}-amide

>  <Target Name>  (1) 
Type-1 angiotensin II receptor

>  <Target Source Organism According to Curator or DataSource>  (1) 
Oryctolagus cuniculus

>  <Ki (nM)>  (1) 


>  <IC50 (nM)>  (1) 
 8.9

>  <Kd (nM)>  (1) 


>  <EC50 (nM)>  (1) 


>  <kon (M-1-s-1)>  (1) 


>  <koff (s-1)>  (1) 


>  <pH>  (1) 


>  <Temp C>  (1) 


>  <Curation/DataSource>  (1) 
ChEMBL

>  <Article DOI>  (1) 
10.1016/S0960-894X(00)80335-2

>  <BindingDB Entry DOI>  (1) 
10.7270/Q29P31KG

>  <PMID>  (1) 


>  <PubChem AID>  (1) 


>  <Patent Number>  (1) 


>  <Authors>  (1) 
de Laszlo, SE; Allen, EE; Quagliato, CS; Greenlee, WJ; Patchett, AA; Nachbar, RB; Sieg, PK; Chang, RS; Kivlighn, SD; Schorn, TS; Faust, KA; Chen, TB; Zingaro, GJ; Lotti, VJ

>  <Institution>  (1) 
TBA

>  <Link to Ligand in BindingDB>  (1) 
http://www.bindingdb.org/bind/chemsearch/marvin/MolStructure.jsp?monomerid=50281927

>  <Link to Ligand-Target Pair in BindingDB>  (1) 
http://www.bindingdb.org/jsp/dbsearch/PrimarySearch_ki.jsp?energyterm=kJ/mole&tag=r21&monomerid=50281927&enzyme=Type-1+angiotensin+II+receptor&column=ki&startPg=0&Increment=50&submit=Search

>  <Ligand HET ID in PDB>  (1) 


>  <PDB ID(s) for Ligand-Target Complex>  (1) 


>  <PubChem CID of Ligand>  (1) 
44274824

>  <PubChem SID of Ligand>  (1) 
104123601

>  <ChEBI ID of Ligand>  (1) 


>  <ChEMBL ID of Ligand>  (1) 
CHEMBL281846

>  <DrugBank ID of Ligand>  (1) 


>  <IUPHAR_GRAC ID of Ligand>  (1) 


>  <KEGG ID of Ligand>  (1) 


>  <ZINC ID of Ligand>  (1) 
ZINC28757601

>  <Number of Protein Chains in Target (bigger than 1 implies a multichain complex)>  (1) 
1

>  <BindingDB Target Chain Sequence>  (1) 
MMLNSSTEDGIKRIQDDCPKAGRHNYIFVMIPTLYSIIFVVGIFGNSLAVIVIYFYMKLKTVASVFLLNLALADLCFLLTLPLWAVYTAMEYRWPFGNYLCKIASASVSFNLYASVFLLTCLSIDRYLAIVHPMKSRLRRTMLVAKVTCIIIWLLAGLASLPAIIHRNVFFIENTNITVCAFHYESQNSTLPIGLGLTKNILGFLFPFLIILTSYTLIWKALKKAYEIQKNKPRNDDIFKIIMAIVLFFFFSWVPHQIFTFLDVLIQLGVIHDCRIADIVDTAMPITICIAYFNNCLNPLFYGFLGKKFKKYFLQLLKYIPPKAKSHSNLSTKMSTLSYRPSDNVSSSSKKPVPCFEVE

>  <PDB ID(s) of Target Chain>  (1) 
6DO1,6OS0,6OS1,6OS2

>  <UniProt (SwissProt) Recommended Name of Target Chain>  (1) 
Type-1 angiotensin II receptor

>  <UniProt (SwissProt) Entry Name of Target Chain>  (1) 
AGTR1_RABIT

>  <UniProt (SwissProt) Primary ID of Target Chain>  (1) 
P34976

>  <UniProt (SwissProt) Secondary ID(s) of Target Chain>  (1) 


>  <UniProt (SwissProt) Alternative ID(s) of Target Chain>  (1) 


>  <UniProt (TrEMBL) Submitted Name of Target Chain>  (1) 


>  <UniProt (TrEMBL) Entry Name of Target Chain>  (1) 


>  <UniProt (TrEMBL) Primary ID of Target Chain>  (1) 


>  <UniProt (TrEMBL) Secondary ID(s) of Target Chain>  (1) 


>  <UniProt (TrEMBL) Alternative ID(s) of Target Chain>  (1) 


$$$$
