
     RDKit          2D

 32 35  0  0  0  0  0  0  0  0999 V2000
    6.2398   -1.7287    0.0000 N   0  0  0  0  0  0  0  0  0  0  0  0
    6.2356   -0.3791    0.0000 N   0  0  0  0  0  0  0  0  0  0  0  0
    5.4483   -1.4746    0.0000 C   0  0  0  0  0  0  0  0  0  0  0  0
    6.7230   -1.0539    0.0000 C   0  0  0  0  0  0  0  0  0  0  0  0
    5.4483   -0.6415    0.0000 C   0  0  0  0  0  0  0  0  0  0  0  0
    4.5736   -5.7525    0.0000 C   0  0  0  0  0  0  0  0  0  0  0  0
    4.0238   -6.3648    0.0000 C   0  0  0  0  0  0  0  0  0  0  0  0
    5.3859   -5.9149    0.0000 C   0  0  0  0  0  0  0  0  0  0  0  0
    4.7278   -1.8869    0.0000 N   0  0  0  0  0  0  0  0  0  0  0  0
    6.4980   -2.5034    0.0000 C   0  0  0  0  0  0  0  0  0  0  0  0
    4.3112   -4.9652    0.0000 O   0  0  0  0  0  0  0  0  0  0  0  0
    3.2240   -6.2023    0.0000 C   0  0  0  0  0  0  0  0  0  0  0  0
    4.7278   -0.2291    0.0000 C   0  0  0  0  0  0  0  0  0  0  0  0
    5.9274   -5.3026    0.0000 O   0  0  0  0  0  0  0  0  0  0  0  0
    4.8610   -4.3529    0.0000 C   0  0  0  0  0  0  0  0  0  0  0  0
    5.9524   -3.1241    0.0000 C   0  0  0  0  0  0  0  0  0  0  0  0
    5.6400   -6.7022    0.0000 O   0  0  0  0  0  0  0  0  0  0  0  0
    2.9616   -5.4151    0.0000 Cl  0  0  0  0  0  0  0  0  0  0  0  0
    7.5477   -1.0414    0.0000 C   0  0  0  0  0  0  0  0  0  0  0  0
    4.0155   -1.4746    0.0000 C   0  0  0  0  0  0  0  0  0  0  0  0
    5.6733   -4.5153    0.0000 C   0  0  0  0  0  0  0  0  0  0  0  0
    4.5986   -3.5739    0.0000 C   0  0  0  0  0  0  0  0  0  0  0  0
    6.2148   -3.9030    0.0000 C   0  0  0  0  0  0  0  0  0  0  0  0
    5.1484   -2.9533    0.0000 C   0  0  0  0  0  0  0  0  0  0  0  0
    4.2904   -7.1520    0.0000 C   0  0  0  0  0  0  0  0  0  0  0  0
    4.0155   -0.6498    0.0000 C   0  0  0  0  0  0  0  0  0  0  0  0
    4.7236    0.5956    0.0000 C   0  0  0  0  0  0  0  0  0  0  0  0
    2.6742   -6.8146    0.0000 C   0  0  0  0  0  0  0  0  0  0  0  0
    7.9643   -1.7537    0.0000 C   0  0  0  0  0  0  0  0  0  0  0  0
    3.7364   -7.7643    0.0000 C   0  0  0  0  0  0  0  0  0  0  0  0
    8.7890   -1.7537    0.0000 C   0  0  0  0  0  0  0  0  0  0  0  0
    2.9283   -7.6019    0.0000 C   0  0  0  0  0  0  0  0  0  0  0  0
  2  4  2  0
  3  1  1  0
  4  1  1  0
  5  3  2  0
  6 11  1  0
  7  6  1  0
  8  6  1  0
  9  3  1  0
 10  1  1  0
 11 15  1  0
 12  7  2  0
 13  5  1  0
 14  8  2  0
 15 22  2  0
 16 10  1  0
 17  8  1  0
 18 12  1  0
 19  4  1  0
 20  9  2  0
 21 23  2  0
 22 24  1  0
 23 16  1  0
 24 16  2  0
 25  7  1  0
 26 20  1  0
 27 13  1  0
 28 12  1  0
 29 19  1  0
 30 25  2  0
 31 29  1  0
 32 30  1  0
  2  5  1  0
 15 21  1  0
 13 26  2  0
 28 32  2  0
M  END
>  <From>  (1) 
www.bindingDB.org

>  <BindingDB Reactant_set_id>  (1) 
50004233

>  <Ligand InChI>  (1) 
InChI=1S/C25H24ClN3O3/c1-3-6-21-28-22-16(2)13-14-27-24(22)29(21)15-17-9-11-18(12-10-17)32-23(25(30)31)19-7-4-5-8-20(19)26/h4-5,7-14,23H,3,6,15H2,1-2H3,(H,30,31)

>  <Ligand InChI Key>  (1) 
GXYPCQWGCDUYBJ-UHFFFAOYSA-N

>  <BindingDB MonomerID>  (1) 
50285349

>  <BindingDB Ligand Name>  (1) 
(2-Chloro-phenyl)-[4-(7-methyl-2-propyl-imidazo[4,5-b]pyridin-3-ylmethyl)-phenoxy]-acetic acid::CHEMBL40381

>  <Target Name>  (1) 
Type-1 angiotensin II receptor

>  <Target Source Organism According to Curator or DataSource>  (1) 
Oryctolagus cuniculus

>  <Ki (nM)>  (1) 


>  <IC50 (nM)>  (1) 
 16

>  <Kd (nM)>  (1) 


>  <EC50 (nM)>  (1) 


>  <kon (M-1-s-1)>  (1) 


>  <koff (s-1)>  (1) 


>  <pH>  (1) 


>  <Temp C>  (1) 


>  <Curation/DataSource>  (1) 
ChEMBL

>  <Article DOI>  (1) 
10.1016/0960-894X(94)00476-V

>  <BindingDB Entry DOI>  (1) 
10.7270/Q26H4HC9

>  <PMID>  (1) 


>  <PubChem AID>  (1) 


>  <Patent Number>  (1) 


>  <Authors>  (1) 
Fitch, KJ; Walsh, TF; Patchett, AA; Chang, RS; Siegl, PK; Faust, KA; Chen, TB; Lotti, VJ; Kivlighn, SD; Zingaro, GJ; Greenlee, WJ

>  <Institution>  (1) 
TBA

>  <Link to Ligand in BindingDB>  (1) 
http://www.bindingdb.org/bind/chemsearch/marvin/MolStructure.jsp?monomerid=50285349

>  <Link to Ligand-Target Pair in BindingDB>  (1) 
http://www.bindingdb.org/jsp/dbsearch/PrimarySearch_ki.jsp?energyterm=kJ/mole&tag=r21&monomerid=50285349&enzyme=Type-1+angiotensin+II+receptor&column=ki&startPg=0&Increment=50&submit=Search

>  <Ligand HET ID in PDB>  (1) 


>  <PDB ID(s) for Ligand-Target Complex>  (1) 


>  <PubChem CID of Ligand>  (1) 
10049400

>  <PubChem SID of Ligand>  (1) 
104126920

>  <ChEBI ID of Ligand>  (1) 


>  <ChEMBL ID of Ligand>  (1) 
CHEMBL40381

>  <DrugBank ID of Ligand>  (1) 


>  <IUPHAR_GRAC ID of Ligand>  (1) 


>  <KEGG ID of Ligand>  (1) 


>  <ZINC ID of Ligand>  (1) 
ZINC11687600

>  <Number of Protein Chains in Target (bigger than 1 implies a multichain complex)>  (1) 
1

>  <BindingDB Target Chain Sequence>  (1) 
MMLNSSTEDGIKRIQDDCPKAGRHNYIFVMIPTLYSIIFVVGIFGNSLAVIVIYFYMKLKTVASVFLLNLALADLCFLLTLPLWAVYTAMEYRWPFGNYLCKIASASVSFNLYASVFLLTCLSIDRYLAIVHPMKSRLRRTMLVAKVTCIIIWLLAGLASLPAIIHRNVFFIENTNITVCAFHYESQNSTLPIGLGLTKNILGFLFPFLIILTSYTLIWKALKKAYEIQKNKPRNDDIFKIIMAIVLFFFFSWVPHQIFTFLDVLIQLGVIHDCRIADIVDTAMPITICIAYFNNCLNPLFYGFLGKKFKKYFLQLLKYIPPKAKSHSNLSTKMSTLSYRPSDNVSSSSKKPVPCFEVE

>  <PDB ID(s) of Target Chain>  (1) 
6DO1,6OS0,6OS1,6OS2

>  <UniProt (SwissProt) Recommended Name of Target Chain>  (1) 
Type-1 angiotensin II receptor

>  <UniProt (SwissProt) Entry Name of Target Chain>  (1) 
AGTR1_RABIT

>  <UniProt (SwissProt) Primary ID of Target Chain>  (1) 
P34976

>  <UniProt (SwissProt) Secondary ID(s) of Target Chain>  (1) 


>  <UniProt (SwissProt) Alternative ID(s) of Target Chain>  (1) 


>  <UniProt (TrEMBL) Submitted Name of Target Chain>  (1) 


>  <UniProt (TrEMBL) Entry Name of Target Chain>  (1) 


>  <UniProt (TrEMBL) Primary ID of Target Chain>  (1) 


>  <UniProt (TrEMBL) Secondary ID(s) of Target Chain>  (1) 


>  <UniProt (TrEMBL) Alternative ID(s) of Target Chain>  (1) 


$$$$
