
     RDKit          2D

 35 39  0  0  0  0  0  0  0  0999 V2000
   12.6827  -13.0235    0.0000 C   0  0  0  0  0  0  0  0  0  0  0  0
   11.9715  -13.4374    0.0000 C   0  0  0  0  0  0  0  0  0  0  0  0
   11.9715  -14.2549    0.0000 C   0  0  0  0  0  0  0  0  0  0  0  0
   12.6788  -14.6642    0.0000 C   0  0  0  0  0  0  0  0  0  0  0  0
   15.4898  -13.8668    0.0000 C   0  0  0  0  0  0  0  0  0  0  0  0
   15.9037  -13.1514    0.0000 O   0  0  0  0  0  0  0  0  0  0  0  0
   13.8326  -15.2827    0.0000 C   0  0  0  0  0  0  0  0  0  0  0  0
   13.4043  -13.4311    0.0000 C   0  0  0  0  0  0  0  0  0  0  0  0
   13.3904  -14.2481    0.0000 C   0  0  0  0  0  0  0  0  0  0  0  0
   14.1632  -14.5137    0.0000 C   0  0  0  0  0  0  0  0  0  0  0  0
   14.6546  -13.8610    0.0000 C   0  0  0  0  0  0  0  0  0  0  0  0
   14.1857  -13.1920    0.0000 C   0  0  0  0  0  0  0  0  0  0  0  0
   14.4473  -12.4073    0.0000 C   0  0  0  0  0  0  0  0  0  0  0  0
   15.2583  -12.2403    0.0000 C   0  0  0  0  0  0  0  0  0  0  0  0
   15.5157  -11.4557    0.0000 C   0  0  0  0  0  0  0  0  0  0  0  0
   14.9707  -10.8381    0.0000 C   0  0  0  0  0  0  0  0  0  0  0  0
   14.1598  -11.0048    0.0000 C   0  0  0  0  0  0  0  0  0  0  0  0
   13.8981  -11.7895    0.0000 C   0  0  0  0  0  0  0  0  0  0  0  0
   15.2324  -10.0533    0.0000 C   0  0  0  0  0  0  0  0  0  0  0  0
   16.0392   -9.8906    0.0000 N   0  0  0  0  0  0  0  0  0  0  0  0
   17.2051   -9.2313    0.0000 N   0  0  0  0  0  0  0  0  0  0  0  0
   16.3851   -9.1347    0.0000 C   0  0  0  0  0  0  0  0  0  0  0  0
   17.3697  -10.0381    0.0000 C   0  0  0  0  0  0  0  0  0  0  0  0
   16.6506  -10.4500    0.0000 C   0  0  0  0  0  0  0  0  0  0  0  0
   16.6506  -11.2737    0.0000 N   0  0  0  0  0  0  0  0  0  0  0  0
   17.3607  -11.6846    0.0000 C   0  0  0  0  0  0  0  0  0  0  0  0
   18.0721  -11.2753    0.0000 C   0  0  0  0  0  0  0  0  0  0  0  0
   18.0721  -10.4583    0.0000 C   0  0  0  0  0  0  0  0  0  0  0  0
   17.3607  -12.5176    0.0000 C   0  0  0  0  0  0  0  0  0  0  0  0
   18.7966  -10.0385    0.0000 C   0  0  0  0  0  0  0  0  0  0  0  0
   15.9732   -8.4199    0.0000 C   0  0  0  0  0  0  0  0  0  0  0  0
   15.1495   -8.4199    0.0000 C   0  0  0  0  0  0  0  0  0  0  0  0
   14.7323   -7.7032    0.0000 C   0  0  0  0  0  0  0  0  0  0  0  0
   15.8995  -14.5829    0.0000 O   0  0  0  0  0  0  0  0  0  0  0  0
   14.6427  -15.1851    0.0000 O   0  0  0  0  0  0  0  0  0  0  0  0
  8  1  2  0
  1  2  1  0
  2  3  2  0
  3  4  1  0
  9 10  1  0
 10 11  1  0
 11 12  1  0
 12  8  1  0
  4  9  2  0
  5  6  2  0
 11  5  1  0
 13 14  2  0
 14 15  1  0
 15 16  2  0
 16 17  1  0
 17 18  2  0
 18 13  1  0
 16 19  1  0
 19 20  1  0
 20 24  1  0
 23 21  1  0
 21 22  2  0
 22 20  1  0
 23 24  2  0
 24 25  1  0
 25 26  2  0
 26 27  1  0
 27 28  2  0
 28 23  1  0
 26 29  1  0
 28 30  1  0
 22 31  1  0
 31 32  1  0
 12 13  1  0
 32 33  1  0
 10  7  1  0
  8  9  1  0
  5 34  1  0
 10 35  1  0
M  END
>  <From>  (1) 
www.bindingDB.org

>  <BindingDB Reactant_set_id>  (1) 
50363329

>  <Ligand InChI>  (1) 
InChI=1S/C29H31N3O3/c1-5-8-23-31-26-17(2)15-18(3)30-27(26)32(23)16-19-11-13-20(14-12-19)24-21-9-6-7-10-22(21)29(4,35)25(24)28(33)34/h6-7,9-15,24-25,35H,5,8,16H2,1-4H3,(H,33,34)

>  <Ligand InChI Key>  (1) 
FQSGMDJXWRKNSS-UHFFFAOYSA-N

>  <BindingDB MonomerID>  (1) 
50197082

>  <BindingDB Ligand Name>  (1) 
3-[4-[(5,7-dimethyl-2-propyl-3H-imidazo[4,5-b]pyridin-3-yl)-methyl]phenyl]-1-hydroxy-1-methyl-1H-indene-2-carboxylic acid::CHEMBL384936

>  <Target Name>  (1) 
Type-1 angiotensin II receptor

>  <Target Source Organism According to Curator or DataSource>  (1) 
Oryctolagus cuniculus

>  <Ki (nM)>  (1) 


>  <IC50 (nM)>  (1) 
 33

>  <Kd (nM)>  (1) 


>  <EC50 (nM)>  (1) 


>  <kon (M-1-s-1)>  (1) 


>  <koff (s-1)>  (1) 


>  <pH>  (1) 


>  <Temp C>  (1) 


>  <Curation/DataSource>  (1) 
ChEMBL

>  <Article DOI>  (1) 
10.1021/jm0603163

>  <BindingDB Entry DOI>  (1) 
10.7270/Q2WW7H9J

>  <PMID>  (1) 
17064065

>  <PubChem AID>  (1) 


>  <Patent Number>  (1) 


>  <Authors>  (1) 
Cappelli, A; Pericot Mohr, G; Giuliani, G; Galeazzi, S; Anzini, M; Mennuni, L; Ferrari, F; Makovec, F; Kleinrath, EM; Langer, T; Valoti, M; Giorgi, G; Vomero, S

>  <Institution>  (1) 
Universit&#224; di Siena

>  <Link to Ligand in BindingDB>  (1) 
http://www.bindingdb.org/bind/chemsearch/marvin/MolStructure.jsp?monomerid=50197082

>  <Link to Ligand-Target Pair in BindingDB>  (1) 
http://www.bindingdb.org/jsp/dbsearch/PrimarySearch_ki.jsp?energyterm=kJ/mole&tag=r21&monomerid=50197082&enzyme=Type-1+angiotensin+II+receptor&column=ki&startPg=0&Increment=50&submit=Search

>  <Ligand HET ID in PDB>  (1) 


>  <PDB ID(s) for Ligand-Target Complex>  (1) 


>  <PubChem CID of Ligand>  (1) 
44417426

>  <PubChem SID of Ligand>  (1) 
104078565

>  <ChEBI ID of Ligand>  (1) 


>  <ChEMBL ID of Ligand>  (1) 
CHEMBL384936

>  <DrugBank ID of Ligand>  (1) 


>  <IUPHAR_GRAC ID of Ligand>  (1) 


>  <KEGG ID of Ligand>  (1) 


>  <ZINC ID of Ligand>  (1) 
ZINC36222520

>  <Number of Protein Chains in Target (bigger than 1 implies a multichain complex)>  (1) 
1

>  <BindingDB Target Chain Sequence>  (1) 
MMLNSSTEDGIKRIQDDCPKAGRHNYIFVMIPTLYSIIFVVGIFGNSLAVIVIYFYMKLKTVASVFLLNLALADLCFLLTLPLWAVYTAMEYRWPFGNYLCKIASASVSFNLYASVFLLTCLSIDRYLAIVHPMKSRLRRTMLVAKVTCIIIWLLAGLASLPAIIHRNVFFIENTNITVCAFHYESQNSTLPIGLGLTKNILGFLFPFLIILTSYTLIWKALKKAYEIQKNKPRNDDIFKIIMAIVLFFFFSWVPHQIFTFLDVLIQLGVIHDCRIADIVDTAMPITICIAYFNNCLNPLFYGFLGKKFKKYFLQLLKYIPPKAKSHSNLSTKMSTLSYRPSDNVSSSSKKPVPCFEVE

>  <PDB ID(s) of Target Chain>  (1) 
6DO1,6OS0,6OS1,6OS2

>  <UniProt (SwissProt) Recommended Name of Target Chain>  (1) 
Type-1 angiotensin II receptor

>  <UniProt (SwissProt) Entry Name of Target Chain>  (1) 
AGTR1_RABIT

>  <UniProt (SwissProt) Primary ID of Target Chain>  (1) 
P34976

>  <UniProt (SwissProt) Secondary ID(s) of Target Chain>  (1) 


>  <UniProt (SwissProt) Alternative ID(s) of Target Chain>  (1) 


>  <UniProt (TrEMBL) Submitted Name of Target Chain>  (1) 


>  <UniProt (TrEMBL) Entry Name of Target Chain>  (1) 


>  <UniProt (TrEMBL) Primary ID of Target Chain>  (1) 


>  <UniProt (TrEMBL) Secondary ID(s) of Target Chain>  (1) 


>  <UniProt (TrEMBL) Alternative ID(s) of Target Chain>  (1) 


$$$$
