
     RDKit          2D

 40 44  0  0  0  0  0  0  0  0999 V2000
   19.6813   -5.9886    0.0000 C   0  0  0  0  0  0  0  0  0  0  0  0
   19.6802   -6.8081    0.0000 C   0  0  0  0  0  0  0  0  0  0  0  0
   20.3882   -7.2171    0.0000 C   0  0  0  0  0  0  0  0  0  0  0  0
   21.0979   -6.8076    0.0000 C   0  0  0  0  0  0  0  0  0  0  0  0
   21.0951   -5.9850    0.0000 C   0  0  0  0  0  0  0  0  0  0  0  0
   20.3864   -5.5797    0.0000 C   0  0  0  0  0  0  0  0  0  0  0  0
   21.8062   -7.2151    0.0000 N   0  0  0  0  0  0  0  0  0  0  0  0
   22.5133   -6.8054    0.0000 C   0  0  0  0  0  0  0  0  0  0  0  0
   23.2217   -7.2129    0.0000 C   0  0  0  0  0  0  0  0  0  0  0  0
   22.5120   -5.9882    0.0000 O   0  0  0  0  0  0  0  0  0  0  0  0
   23.2183   -8.0285    0.0000 C   0  0  0  0  0  0  0  0  0  0  0  0
   23.9258   -8.4359    0.0000 C   0  0  0  0  0  0  0  0  0  0  0  0
   24.6339   -8.0262    0.0000 C   0  0  0  0  0  0  0  0  0  0  0  0
   24.6300   -7.2048    0.0000 C   0  0  0  0  0  0  0  0  0  0  0  0
   23.9219   -6.8011    0.0000 C   0  0  0  0  0  0  0  0  0  0  0  0
   18.9735   -5.5801    0.0000 C   0  0  0  0  0  0  0  0  0  0  0  0
   18.9733   -4.7630    0.0000 N   0  0  0  0  0  0  0  0  0  0  0  0
   19.6401   -4.2837    0.0000 C   0  0  0  0  0  0  0  0  0  0  0  0
   19.3874   -3.5065    0.0000 N   0  0  0  0  0  0  0  0  0  0  0  0
   18.5702   -3.5067    0.0000 N   0  0  0  0  0  0  0  0  0  0  0  0
   18.3180   -4.2840    0.0000 C   0  0  0  0  0  0  0  0  0  0  0  0
   17.5405   -4.5356    0.0000 C   0  0  0  0  0  0  0  0  0  0  0  0
   17.3696   -5.3347    0.0000 C   0  0  0  0  0  0  0  0  0  0  0  0
   17.9762   -5.8823    0.0000 C   0  0  0  0  0  0  0  0  0  0  0  0
   23.9112   -5.9829    0.0000 C   0  0  0  0  0  0  0  0  0  0  0  0
   20.4167   -4.5381    0.0000 S   0  0  0  0  0  0  0  0  0  0  0  0
   21.0253   -3.9928    0.0000 C   0  0  0  0  0  0  0  0  0  0  0  0
   24.5632   -5.4926    0.0000 N   0  0  0  0  0  0  0  0  0  0  0  0
   24.3003   -4.7178    0.0000 N   0  0  0  0  0  0  0  0  0  0  0  0
   23.4820   -4.7284    0.0000 N   0  0  0  0  0  0  0  0  0  0  0  0
   23.2395   -5.5098    0.0000 N   0  0  0  0  0  0  0  0  0  0  0  0
   20.8574   -3.1930    0.0000 C   0  0  0  0  0  0  0  0  0  0  0  0
   21.4683   -2.6527    0.0000 C   0  0  0  0  0  0  0  0  0  0  0  0
   21.3009   -1.8536    0.0000 C   0  0  0  0  0  0  0  0  0  0  0  0
   20.5236   -1.5985    0.0000 C   0  0  0  0  0  0  0  0  0  0  0  0
   19.9136   -2.1486    0.0000 C   0  0  0  0  0  0  0  0  0  0  0  0
   20.0842   -2.9456    0.0000 C   0  0  0  0  0  0  0  0  0  0  0  0
   20.3546   -0.8024    0.0000 Cl  0  0  0  0  0  0  0  0  0  0  0  0
   17.8054   -6.6814    0.0000 C   0  0  0  0  0  0  0  0  0  0  0  0
   18.4120   -7.2289    0.0000 C   0  0  0  0  0  0  0  0  0  0  0  0
  1  2  2  0
  2  3  1  0
  3  4  2  0
  4  5  1  0
  5  6  2  0
  6  1  1  0
  4  7  1  0
  7  8  1  0
  8  9  1  0
  8 10  2  0
  9 11  2  0
 11 12  1  0
 12 13  2  0
 13 14  1  0
 14 15  2  0
 15  9  1  0
  1 16  1  0
 16 17  1  0
 17 18  1  0
 18 19  2  0
 19 20  1  0
 20 21  2  0
 21 17  1  0
 21 22  1  0
 22 23  1  0
 23 24  1  0
 15 25  1  0
 18 26  1  0
 26 27  1  0
 25 28  2  0
 28 29  1  0
 29 30  2  0
 30 31  1  0
 31 25  1  0
 27 32  1  0
 32 33  2  0
 33 34  1  0
 34 35  2  0
 35 36  1  0
 36 37  2  0
 37 32  1  0
 35 38  1  0
 24 39  1  0
 39 40  1  0
M  END
>  <From>  (1) 
www.bindingDB.org

>  <BindingDB Reactant_set_id>  (1) 
51183528

>  <Ligand InChI>  (1) 
InChI=1S/C29H29ClN8OS/c1-2-3-4-9-26-32-35-29(40-19-21-10-14-22(30)15-11-21)38(26)18-20-12-16-23(17-13-20)31-28(39)25-8-6-5-7-24(25)27-33-36-37-34-27/h5-8,10-17H,2-4,9,18-19H2,1H3,(H,31,39)(H,33,34,36,37)

>  <Ligand InChI Key>  (1) 
JEOKDJWUVYZSNG-UHFFFAOYSA-N

>  <BindingDB MonomerID>  (1) 
50486739

>  <BindingDB Ligand Name>  (1) 
CHEMBL2237593

>  <Target Name>  (1) 
Type-1 angiotensin II receptor

>  <Target Source Organism According to Curator or DataSource>  (1) 
Oryctolagus cuniculus

>  <Ki (nM)>  (1) 


>  <IC50 (nM)>  (1) 
 94

>  <Kd (nM)>  (1) 


>  <EC50 (nM)>  (1) 


>  <kon (M-1-s-1)>  (1) 


>  <koff (s-1)>  (1) 


>  <pH>  (1) 


>  <Temp C>  (1) 


>  <Curation/DataSource>  (1) 
ChEMBL

>  <Article DOI>  (1) 
10.1007/s00044-011-9756-4

>  <BindingDB Entry DOI>  (1) 
10.7270/Q2833VXQ

>  <PMID>  (1) 


>  <PubChem AID>  (1) 


>  <Patent Number>  (1) 


>  <Authors>  (1) 
n/a

>  <Institution>  (1) 
n/a

>  <Link to Ligand in BindingDB>  (1) 
http://www.bindingdb.org/bind/chemsearch/marvin/MolStructure.jsp?monomerid=50486739

>  <Link to Ligand-Target Pair in BindingDB>  (1) 
http://www.bindingdb.org/jsp/dbsearch/PrimarySearch_ki.jsp?energyterm=kJ/mole&tag=r21&monomerid=50486739&enzyme=Type-1+angiotensin+II+receptor&column=ki&startPg=0&Increment=50&submit=Search

>  <Ligand HET ID in PDB>  (1) 


>  <PDB ID(s) for Ligand-Target Complex>  (1) 


>  <PubChem CID of Ligand>  (1) 
76319034

>  <PubChem SID of Ligand>  (1) 
433954004

>  <ChEBI ID of Ligand>  (1) 


>  <ChEMBL ID of Ligand>  (1) 


>  <DrugBank ID of Ligand>  (1) 


>  <IUPHAR_GRAC ID of Ligand>  (1) 


>  <KEGG ID of Ligand>  (1) 


>  <ZINC ID of Ligand>  (1) 


>  <Number of Protein Chains in Target (bigger than 1 implies a multichain complex)>  (1) 
1

>  <BindingDB Target Chain Sequence>  (1) 
MMLNSSTEDGIKRIQDDCPKAGRHNYIFVMIPTLYSIIFVVGIFGNSLAVIVIYFYMKLKTVASVFLLNLALADLCFLLTLPLWAVYTAMEYRWPFGNYLCKIASASVSFNLYASVFLLTCLSIDRYLAIVHPMKSRLRRTMLVAKVTCIIIWLLAGLASLPAIIHRNVFFIENTNITVCAFHYESQNSTLPIGLGLTKNILGFLFPFLIILTSYTLIWKALKKAYEIQKNKPRNDDIFKIIMAIVLFFFFSWVPHQIFTFLDVLIQLGVIHDCRIADIVDTAMPITICIAYFNNCLNPLFYGFLGKKFKKYFLQLLKYIPPKAKSHSNLSTKMSTLSYRPSDNVSSSSKKPVPCFEVE

>  <PDB ID(s) of Target Chain>  (1) 
6DO1,6OS0,6OS1,6OS2

>  <UniProt (SwissProt) Recommended Name of Target Chain>  (1) 
Type-1 angiotensin II receptor

>  <UniProt (SwissProt) Entry Name of Target Chain>  (1) 
AGTR1_RABIT

>  <UniProt (SwissProt) Primary ID of Target Chain>  (1) 
P34976

>  <UniProt (SwissProt) Secondary ID(s) of Target Chain>  (1) 


>  <UniProt (SwissProt) Alternative ID(s) of Target Chain>  (1) 


>  <UniProt (TrEMBL) Submitted Name of Target Chain>  (1) 


>  <UniProt (TrEMBL) Entry Name of Target Chain>  (1) 


>  <UniProt (TrEMBL) Primary ID of Target Chain>  (1) 


>  <UniProt (TrEMBL) Secondary ID(s) of Target Chain>  (1) 


>  <UniProt (TrEMBL) Alternative ID(s) of Target Chain>  (1) 


$$$$
