
     RDKit          2D

 45 50  0  0  0  0  0  0  0  0999 V2000
    5.7667   -3.7375    0.0000 N   0  0  0  0  0  0  0  0  0  0  0  0
    5.0500   -3.3292    0.0000 C   0  0  0  0  0  0  0  0  0  0  0  0
    4.3417   -3.7417    0.0000 C   0  0  0  0  0  0  0  0  0  0  0  0
    5.7667   -4.5667    0.0000 C   0  0  0  0  0  0  0  0  0  0  0  0
    5.0542   -4.9792    0.0000 N   0  0  0  0  0  0  0  0  0  0  0  0
    9.7625   -1.8875    0.0000 C   0  0  0  0  0  0  0  0  0  0  0  0
    8.9375   -1.8042    0.0000 N   0  0  0  0  0  0  0  0  0  0  0  0
    8.7542   -1.0042    0.0000 N   0  0  0  0  0  0  0  0  0  0  0  0
   10.0792   -1.1292    0.0000 N   0  0  0  0  0  0  0  0  0  0  0  0
    4.3417   -4.5667    0.0000 C   0  0  0  0  0  0  0  0  0  0  0  0
    9.4667   -0.5792    0.0000 N   0  0  0  0  0  0  0  0  0  0  0  0
    1.4792   -3.7500    0.0000 C   0  0  0  0  0  0  0  0  0  0  0  0
    3.6250   -3.3292    0.0000 C   0  0  0  0  0  0  0  0  0  0  0  0
   10.1792   -2.6000    0.0000 C   0  0  0  0  0  0  0  0  0  0  0  0
    2.9125   -3.7500    0.0000 C   0  0  0  0  0  0  0  0  0  0  0  0
    2.1917   -3.3375    0.0000 N   0  0  0  0  0  0  0  0  0  0  0  0
    9.7667   -3.3167    0.0000 C   0  0  0  0  0  0  0  0  0  0  0  0
    6.4792   -3.3167    0.0000 C   0  0  0  0  0  0  0  0  0  0  0  0
    5.0417   -2.5042    0.0000 O   0  0  0  0  0  0  0  0  0  0  0  0
    1.4792   -4.5750    0.0000 O   0  0  0  0  0  0  0  0  0  0  0  0
    8.9417   -3.3167    0.0000 C   0  0  0  0  0  0  0  0  0  0  0  0
    0.7667   -3.3375    0.0000 O   0  0  0  0  0  0  0  0  0  0  0  0
    3.6250   -4.9875    0.0000 C   0  0  0  0  0  0  0  0  0  0  0  0
    2.9125   -4.5750    0.0000 C   0  0  0  0  0  0  0  0  0  0  0  0
    8.5292   -2.6042    0.0000 C   0  0  0  0  0  0  0  0  0  0  0  0
    8.5375   -4.0292    0.0000 C   0  0  0  0  0  0  0  0  0  0  0  0
    7.3042   -3.3167    0.0000 C   0  0  0  0  0  0  0  0  0  0  0  0
    0.7667   -4.9875    0.0000 C   0  0  0  0  0  0  0  0  0  0  0  0
    6.3542   -5.1417    0.0000 C   0  0  0  0  0  0  0  0  0  0  0  0
    7.7042   -2.6042    0.0000 C   0  0  0  0  0  0  0  0  0  0  0  0
    7.7125   -4.0292    0.0000 C   0  0  0  0  0  0  0  0  0  0  0  0
    0.7667   -5.8125    0.0000 C   0  0  0  0  0  0  0  0  0  0  0  0
   11.0000   -2.5917    0.0000 C   0  0  0  0  0  0  0  0  0  0  0  0
    2.1917   -2.5125    0.0000 C   0  0  0  0  0  0  0  0  0  0  0  0
   10.1875   -4.0292    0.0000 C   0  0  0  0  0  0  0  0  0  0  0  0
    0.0542   -6.2250    0.0000 C   0  0  0  0  0  0  0  0  0  0  0  0
    1.4875   -6.2167    0.0000 C   0  0  0  0  0  0  0  0  0  0  0  0
    7.1500   -4.9292    0.0000 C   0  0  0  0  0  0  0  0  0  0  0  0
    7.7292   -5.5125    0.0000 C   0  0  0  0  0  0  0  0  0  0  0  0
   11.4167   -3.3125    0.0000 C   0  0  0  0  0  0  0  0  0  0  0  0
   11.0042   -4.0292    0.0000 C   0  0  0  0  0  0  0  0  0  0  0  0
    8.5292   -5.3000    0.0000 C   0  0  0  0  0  0  0  0  0  0  0  0
    1.4917   -7.0417    0.0000 C   0  0  0  0  0  0  0  0  0  0  0  0
    0.0542   -7.0500    0.0000 C   0  0  0  0  0  0  0  0  0  0  0  0
    0.7750   -7.4625    0.0000 C   0  0  0  0  0  0  0  0  0  0  0  0
  2  1  1  0
  3  2  1  0
  4  1  1  0
  5  4  2  0
  6 14  1  0
  7  6  1  0
  8  7  1  0
  9  6  2  0
 10  5  1  0
 11  9  1  0
 12 16  1  0
 13  3  2  0
 14 17  1  0
 15 13  1  0
 16 15  1  0
 17 21  1  0
 18  1  1  0
 19  2  2  0
 20 12  1  0
 21 26  2  0
 22 12  2  0
 23 10  2  0
 24 23  1  0
 25 30  2  0
 26 31  1  0
 27 18  1  0
 28 20  1  0
 29  4  1  0
 30 27  1  0
 31 27  2  0
 32 28  1  0
 33 14  2  0
 34 16  1  0
 35 17  2  0
 36 32  2  0
 37 32  1  0
 38 29  1  0
 39 38  1  0
 40 41  2  0
 41 35  1  0
 42 39  1  0
 43 37  2  0
 44 36  1  0
 45 43  1  0
 10  3  1  0
 21 25  1  0
 24 15  2  0
 33 40  1  0
  8 11  2  0
 45 44  2  0
M  END
>  <From>  (1) 
www.bindingDB.org

>  <BindingDB Reactant_set_id>  (1) 
50002379

>  <Ligand InChI>  (1) 
InChI=1S/C35H33N7O3/c1-3-4-14-32-36-31-20-19-27(41(2)35(44)45-23-25-10-6-5-7-11-25)21-30(31)34(43)42(32)22-24-15-17-26(18-16-24)28-12-8-9-13-29(28)33-37-39-40-38-33/h5-13,15-21H,3-4,14,22-23H2,1-2H3,(H,37,38,39,40)

>  <Ligand InChI Key>  (1) 
ZEBMZWJEQNVROC-UHFFFAOYSA-N

>  <BindingDB MonomerID>  (1) 
50281964

>  <BindingDB Ligand Name>  (1) 
CHEMBL25315::{2-Butyl-4-oxo-3-[2'-(2H-tetrazol-5-yl)-biphenyl-4-ylmethyl]-3,4-dihydro-quinazolin-6-yl}-methyl-carbamic acid benzyl ester

>  <Target Name>  (1) 
Type-1 angiotensin II receptor

>  <Target Source Organism According to Curator or DataSource>  (1) 
Oryctolagus cuniculus

>  <Ki (nM)>  (1) 


>  <IC50 (nM)>  (1) 
 0.830000

>  <Kd (nM)>  (1) 


>  <EC50 (nM)>  (1) 


>  <kon (M-1-s-1)>  (1) 


>  <koff (s-1)>  (1) 


>  <pH>  (1) 


>  <Temp C>  (1) 


>  <Curation/DataSource>  (1) 
ChEMBL

>  <Article DOI>  (1) 
10.1016/S0960-894X(00)80335-2

>  <BindingDB Entry DOI>  (1) 
10.7270/Q29P31KG

>  <PMID>  (1) 


>  <PubChem AID>  (1) 


>  <Patent Number>  (1) 


>  <Authors>  (1) 
de Laszlo, SE; Allen, EE; Quagliato, CS; Greenlee, WJ; Patchett, AA; Nachbar, RB; Sieg, PK; Chang, RS; Kivlighn, SD; Schorn, TS; Faust, KA; Chen, TB; Zingaro, GJ; Lotti, VJ

>  <Institution>  (1) 
TBA

>  <Link to Ligand in BindingDB>  (1) 
http://www.bindingdb.org/bind/chemsearch/marvin/MolStructure.jsp?monomerid=50281964

>  <Link to Ligand-Target Pair in BindingDB>  (1) 
http://www.bindingdb.org/jsp/dbsearch/PrimarySearch_ki.jsp?energyterm=kJ/mole&tag=r21&monomerid=50281964&enzyme=Type-1+angiotensin+II+receptor&column=ki&startPg=0&Increment=50&submit=Search

>  <Ligand HET ID in PDB>  (1) 


>  <PDB ID(s) for Ligand-Target Complex>  (1) 


>  <PubChem CID of Ligand>  (1) 
44275096

>  <PubChem SID of Ligand>  (1) 
104123638

>  <ChEBI ID of Ligand>  (1) 


>  <ChEMBL ID of Ligand>  (1) 
CHEMBL25315

>  <DrugBank ID of Ligand>  (1) 


>  <IUPHAR_GRAC ID of Ligand>  (1) 


>  <KEGG ID of Ligand>  (1) 


>  <ZINC ID of Ligand>  (1) 
ZINC28758976

>  <Number of Protein Chains in Target (bigger than 1 implies a multichain complex)>  (1) 
1

>  <BindingDB Target Chain Sequence>  (1) 
MMLNSSTEDGIKRIQDDCPKAGRHNYIFVMIPTLYSIIFVVGIFGNSLAVIVIYFYMKLKTVASVFLLNLALADLCFLLTLPLWAVYTAMEYRWPFGNYLCKIASASVSFNLYASVFLLTCLSIDRYLAIVHPMKSRLRRTMLVAKVTCIIIWLLAGLASLPAIIHRNVFFIENTNITVCAFHYESQNSTLPIGLGLTKNILGFLFPFLIILTSYTLIWKALKKAYEIQKNKPRNDDIFKIIMAIVLFFFFSWVPHQIFTFLDVLIQLGVIHDCRIADIVDTAMPITICIAYFNNCLNPLFYGFLGKKFKKYFLQLLKYIPPKAKSHSNLSTKMSTLSYRPSDNVSSSSKKPVPCFEVE

>  <PDB ID(s) of Target Chain>  (1) 
6DO1,6OS0,6OS1,6OS2

>  <UniProt (SwissProt) Recommended Name of Target Chain>  (1) 
Type-1 angiotensin II receptor

>  <UniProt (SwissProt) Entry Name of Target Chain>  (1) 
AGTR1_RABIT

>  <UniProt (SwissProt) Primary ID of Target Chain>  (1) 
P34976

>  <UniProt (SwissProt) Secondary ID(s) of Target Chain>  (1) 


>  <UniProt (SwissProt) Alternative ID(s) of Target Chain>  (1) 


>  <UniProt (TrEMBL) Submitted Name of Target Chain>  (1) 


>  <UniProt (TrEMBL) Entry Name of Target Chain>  (1) 


>  <UniProt (TrEMBL) Primary ID of Target Chain>  (1) 


>  <UniProt (TrEMBL) Secondary ID(s) of Target Chain>  (1) 


>  <UniProt (TrEMBL) Alternative ID(s) of Target Chain>  (1) 


$$$$
