
     RDKit          2D

 45 49  0  0  0  0  0  0  0  0999 V2000
    7.7728   -7.5151    0.0000 N   0  0  0  0  0  0  0  0  0  0  0  0
    7.3604   -8.7867    0.0000 N   0  0  0  0  0  0  0  0  0  0  0  0
   10.9347  -10.0239    0.0000 S   0  0  0  0  0  0  0  0  0  0  0  0
    8.0306   -8.3055    0.0000 C   0  0  0  0  0  0  0  0  0  0  0  0
    6.9480   -7.5151    0.0000 N   0  0  0  0  0  0  0  0  0  0  0  0
   10.9175   -9.1991    0.0000 N   0  0  0  0  0  0  0  0  0  0  0  0
    6.6903   -8.3055    0.0000 C   0  0  0  0  0  0  0  0  0  0  0  0
   11.6392   -8.7695    0.0000 C   0  0  0  0  0  0  0  0  0  0  0  0
    7.9275   -6.1060    0.0000 C   0  0  0  0  0  0  0  0  0  0  0  0
    8.2540   -6.8449    0.0000 C   0  0  0  0  0  0  0  0  0  0  0  0
   11.6220   -7.9447    0.0000 C   0  0  0  0  0  0  0  0  0  0  0  0
    7.1027   -6.0201    0.0000 C   0  0  0  0  0  0  0  0  0  0  0  0
   10.9347  -10.8315    0.0000 C   0  0  0  0  0  0  0  0  0  0  0  0
   12.2922   -7.4635    0.0000 S   0  0  0  0  0  0  0  0  0  0  0  0
   10.2129  -11.2611    0.0000 C   0  0  0  0  0  0  0  0  0  0  0  0
   10.9518   -7.4635    0.0000 C   0  0  0  0  0  0  0  0  0  0  0  0
    7.3604   -9.6115    0.0000 C   0  0  0  0  0  0  0  0  0  0  0  0
   10.1098  -10.0239    0.0000 O   0  0  0  0  0  0  0  0  0  0  0  0
   11.7595  -10.0239    0.0000 O   0  0  0  0  0  0  0  0  0  0  0  0
   12.0344   -6.6731    0.0000 C   0  0  0  0  0  0  0  0  0  0  0  0
    8.8210   -8.5461    0.0000 O   0  0  0  0  0  0  0  0  0  0  0  0
   11.1924   -6.6903    0.0000 C   0  0  0  0  0  0  0  0  0  0  0  0
    9.5084  -10.8487    0.0000 C   0  0  0  0  0  0  0  0  0  0  0  0
   12.3437   -9.1819    0.0000 O   0  0  0  0  0  0  0  0  0  0  0  0
    6.6215   -5.2984    0.0000 F   0  0  0  0  0  0  0  0  0  0  0  0
    6.4841   -6.6387    0.0000 F   0  0  0  0  0  0  0  0  0  0  0  0
    6.3466   -5.9514    0.0000 F   0  0  0  0  0  0  0  0  0  0  0  0
    8.7867  -11.2611    0.0000 C   0  0  0  0  0  0  0  0  0  0  0  0
    9.5084  -10.0067    0.0000 C   0  0  0  0  0  0  0  0  0  0  0  0
    8.0821  -10.0239    0.0000 C   0  0  0  0  0  0  0  0  0  0  0  0
    5.9170   -8.5461    0.0000 C   0  0  0  0  0  0  0  0  0  0  0  0
    8.4086   -5.4358    0.0000 C   0  0  0  0  0  0  0  0  0  0  0  0
    8.7867   -9.6115    0.0000 C   0  0  0  0  0  0  0  0  0  0  0  0
    8.0821  -10.8487    0.0000 C   0  0  0  0  0  0  0  0  0  0  0  0
    9.0788   -6.9308    0.0000 C   0  0  0  0  0  0  0  0  0  0  0  0
   11.6392  -11.2440    0.0000 C   0  0  0  0  0  0  0  0  0  0  0  0
   10.2129  -12.0860    0.0000 C   0  0  0  0  0  0  0  0  0  0  0  0
   12.5156   -6.0029    0.0000 C   0  0  0  0  0  0  0  0  0  0  0  0
    5.2984   -7.9962    0.0000 C   0  0  0  0  0  0  0  0  0  0  0  0
    4.5079   -8.2540    0.0000 C   0  0  0  0  0  0  0  0  0  0  0  0
    9.2163   -5.5218    0.0000 C   0  0  0  0  0  0  0  0  0  0  0  0
    9.5600   -6.2779    0.0000 C   0  0  0  0  0  0  0  0  0  0  0  0
   11.6564  -12.0688    0.0000 C   0  0  0  0  0  0  0  0  0  0  0  0
   10.9347  -12.4984    0.0000 C   0  0  0  0  0  0  0  0  0  0  0  0
    3.9065   -7.7041    0.0000 C   0  0  0  0  0  0  0  0  0  0  0  0
  2  4  1  0
  3 13  1  0
  4  1  1  0
  5  1  1  0
  6  3  1  0
  7  5  2  0
  8  6  1  0
  9 10  2  0
 10  1  1  0
 11  8  1  0
 12  9  1  0
 13 15  1  0
 14 11  1  0
 15 23  1  0
 16 11  2  0
 17  2  1  0
 18  3  2  0
 19  3  2  0
 20 14  1  0
 21  4  2  0
 22 16  1  0
 23 29  2  0
 24  8  2  0
 25 12  1  0
 26 12  1  0
 27 12  1  0
 28 34  2  0
 29 33  1  0
 30 17  1  0
 31  7  1  0
 32  9  1  0
 33 30  2  0
 34 30  1  0
 35 10  1  0
 36 13  2  0
 37 15  2  0
 38 20  1  0
 39 31  1  0
 40 39  1  0
 41 42  1  0
 42 35  2  0
 43 44  2  0
 44 37  1  0
 45 40  1  0
  2  7  1  0
 41 32  2  0
 28 23  1  0
 43 36  1  0
 22 20  2  0
M  END
>  <From>  (1) 
www.bindingDB.org

>  <BindingDB Reactant_set_id>  (1) 
50036503

>  <Ligand InChI>  (1) 
InChI=1S/C32H29F3N4O4S2/c1-3-4-13-29-36-39(26-11-7-6-10-25(26)32(33,34)35)31(41)38(29)20-22-15-17-23(18-16-22)24-9-5-8-12-28(24)45(42,43)37-30(40)27-19-14-21(2)44-27/h5-12,14-19H,3-4,13,20H2,1-2H3,(H,37,40)

>  <Ligand InChI Key>  (1) 
JYZLVNVGBRFRME-UHFFFAOYSA-N

>  <BindingDB MonomerID>  (1) 
50039855

>  <BindingDB Ligand Name>  (1) 
4'-[3-Butyl-5-oxo-1-(2-trifluoromethyl-phenyl)-1,5-dihydro-[1,2,4]triazol-4-ylmethyl]-biphenyl-2-sulfonic acid (5-methyl-thiophene-2-carbonyl)-amide; compound with dichloro-methane::CHEMBL265012

>  <Target Name>  (1) 
Type-1 angiotensin II receptor

>  <Target Source Organism According to Curator or DataSource>  (1) 
Oryctolagus cuniculus

>  <Ki (nM)>  (1) 


>  <IC50 (nM)>  (1) 
 0.640000

>  <Kd (nM)>  (1) 


>  <EC50 (nM)>  (1) 


>  <kon (M-1-s-1)>  (1) 


>  <koff (s-1)>  (1) 


>  <pH>  (1) 


>  <Temp C>  (1) 


>  <Curation/DataSource>  (1) 
ChEMBL

>  <Article DOI>  (1) 
10.1021/jm00043a020

>  <BindingDB Entry DOI>  (1) 
10.7270/Q2M907QM

>  <PMID>  (1) 
8064808

>  <PubChem AID>  (1) 


>  <Patent Number>  (1) 


>  <Authors>  (1) 
Ashton, WT; Chang, LL; Flanagan, KL; Hutchins, SM; Naylor, EM; Chakravarty, PK; Patchett, AA; Greenlee, WJ; Chen, TB; Faust, KA

>  <Institution>  (1) 
Merck Research Laboratories

>  <Link to Ligand in BindingDB>  (1) 
http://www.bindingdb.org/bind/chemsearch/marvin/MolStructure.jsp?monomerid=50039855

>  <Link to Ligand-Target Pair in BindingDB>  (1) 
http://www.bindingdb.org/jsp/dbsearch/PrimarySearch_ki.jsp?energyterm=kJ/mole&tag=r21&monomerid=50039855&enzyme=Type-1+angiotensin+II+receptor&column=ki&startPg=0&Increment=50&submit=Search

>  <Ligand HET ID in PDB>  (1) 


>  <PDB ID(s) for Ligand-Target Complex>  (1) 


>  <PubChem CID of Ligand>  (1) 
5312129

>  <PubChem SID of Ligand>  (1) 
103947050

>  <ChEBI ID of Ligand>  (1) 


>  <ChEMBL ID of Ligand>  (1) 
CHEMBL265012

>  <DrugBank ID of Ligand>  (1) 


>  <IUPHAR_GRAC ID of Ligand>  (1) 


>  <KEGG ID of Ligand>  (1) 


>  <ZINC ID of Ligand>  (1) 
ZINC03922582

>  <Number of Protein Chains in Target (bigger than 1 implies a multichain complex)>  (1) 
1

>  <BindingDB Target Chain Sequence>  (1) 
MMLNSSTEDGIKRIQDDCPKAGRHNYIFVMIPTLYSIIFVVGIFGNSLAVIVIYFYMKLKTVASVFLLNLALADLCFLLTLPLWAVYTAMEYRWPFGNYLCKIASASVSFNLYASVFLLTCLSIDRYLAIVHPMKSRLRRTMLVAKVTCIIIWLLAGLASLPAIIHRNVFFIENTNITVCAFHYESQNSTLPIGLGLTKNILGFLFPFLIILTSYTLIWKALKKAYEIQKNKPRNDDIFKIIMAIVLFFFFSWVPHQIFTFLDVLIQLGVIHDCRIADIVDTAMPITICIAYFNNCLNPLFYGFLGKKFKKYFLQLLKYIPPKAKSHSNLSTKMSTLSYRPSDNVSSSSKKPVPCFEVE

>  <PDB ID(s) of Target Chain>  (1) 
6DO1,6OS0,6OS1,6OS2

>  <UniProt (SwissProt) Recommended Name of Target Chain>  (1) 
Type-1 angiotensin II receptor

>  <UniProt (SwissProt) Entry Name of Target Chain>  (1) 
AGTR1_RABIT

>  <UniProt (SwissProt) Primary ID of Target Chain>  (1) 
P34976

>  <UniProt (SwissProt) Secondary ID(s) of Target Chain>  (1) 


>  <UniProt (SwissProt) Alternative ID(s) of Target Chain>  (1) 


>  <UniProt (TrEMBL) Submitted Name of Target Chain>  (1) 


>  <UniProt (TrEMBL) Entry Name of Target Chain>  (1) 


>  <UniProt (TrEMBL) Primary ID of Target Chain>  (1) 


>  <UniProt (TrEMBL) Secondary ID(s) of Target Chain>  (1) 


>  <UniProt (TrEMBL) Alternative ID(s) of Target Chain>  (1) 


$$$$
