
     RDKit          2D

 46 49  0  0  0  0  0  0  0  0999 V2000
    2.5153    1.9364    0.0000 N   0  0  0  0  0  0  0  0  0  0  0  0
    2.0530    0.6871    0.0000 N   0  0  0  0  0  0  0  0  0  0  0  0
    2.7401    1.1451    0.0000 C   0  0  0  0  0  0  0  0  0  0  0  0
    5.5468   -0.6996    0.0000 S   0  0  0  0  0  0  0  0  0  0  0  0
    1.6907    1.9697    0.0000 N   0  0  0  0  0  0  0  0  0  0  0  0
    1.4034    1.1993    0.0000 C   0  0  0  0  0  0  0  0  0  0  0  0
    5.5385    0.1249    0.0000 N   0  0  0  0  0  0  0  0  0  0  0  0
    2.7234    3.3564    0.0000 C   0  0  0  0  0  0  0  0  0  0  0  0
    3.0275    2.5860    0.0000 C   0  0  0  0  0  0  0  0  0  0  0  0
    1.9031    3.4563    0.0000 C   0  0  0  0  0  0  0  0  0  0  0  0
    5.5135   -1.5241    0.0000 C   0  0  0  0  0  0  0  0  0  0  0  0
    4.7890   -1.9031    0.0000 C   0  0  0  0  0  0  0  0  0  0  0  0
    2.0155   -0.1374    0.0000 C   0  0  0  0  0  0  0  0  0  0  0  0
    6.2506    0.5455    0.0000 C   0  0  0  0  0  0  0  0  0  0  0  0
    6.3713   -0.6996    0.0000 O   0  0  0  0  0  0  0  0  0  0  0  0
    4.7223   -0.6913    0.0000 O   0  0  0  0  0  0  0  0  0  0  0  0
    3.5105    0.8578    0.0000 O   0  0  0  0  0  0  0  0  0  0  0  0
    4.0976   -1.4617    0.0000 C   0  0  0  0  0  0  0  0  0  0  0  0
    6.2464    1.3700    0.0000 O   0  0  0  0  0  0  0  0  0  0  0  0
    1.1618    3.5688    0.0000 F   0  0  0  0  0  0  0  0  0  0  0  0
    1.4534    4.1893    0.0000 F   0  0  0  0  0  0  0  0  0  0  0  0
    1.2660    2.8734    0.0000 F   0  0  0  0  0  0  0  0  0  0  0  0
    3.3648   -1.8406    0.0000 C   0  0  0  0  0  0  0  0  0  0  0  0
    4.1268   -0.6371    0.0000 C   0  0  0  0  0  0  0  0  0  0  0  0
    2.7109   -0.5789    0.0000 C   0  0  0  0  0  0  0  0  0  0  0  0
    0.6121    0.9827    0.0000 C   0  0  0  0  0  0  0  0  0  0  0  0
    3.2273    3.9935    0.0000 C   0  0  0  0  0  0  0  0  0  0  0  0
    3.4355   -0.1916    0.0000 C   0  0  0  0  0  0  0  0  0  0  0  0
    2.6652   -1.4034    0.0000 C   0  0  0  0  0  0  0  0  0  0  0  0
    3.8395    2.4611    0.0000 C   0  0  0  0  0  0  0  0  0  0  0  0
    6.2131   -1.9614    0.0000 C   0  0  0  0  0  0  0  0  0  0  0  0
    4.7515   -2.7276    0.0000 C   0  0  0  0  0  0  0  0  0  0  0  0
    6.9710    0.1374    0.0000 C   0  0  0  0  0  0  0  0  0  0  0  0
    0.0167    1.5574    0.0000 C   0  0  0  0  0  0  0  0  0  0  0  0
    7.6748    0.5580    0.0000 C   0  0  0  0  0  0  0  0  0  0  0  0
   -0.7704    1.3367    0.0000 C   0  0  0  0  0  0  0  0  0  0  0  0
   10.5357    0.5830    0.0000 C   0  0  0  0  0  0  0  0  0  0  0  0
    4.0477    3.8811    0.0000 C   0  0  0  0  0  0  0  0  0  0  0  0
    9.8236    0.1624    0.0000 C   0  0  0  0  0  0  0  0  0  0  0  0
    8.3994    0.1499    0.0000 C   0  0  0  0  0  0  0  0  0  0  0  0
    9.1073    0.5705    0.0000 C   0  0  0  0  0  0  0  0  0  0  0  0
    4.3517    3.1065    0.0000 C   0  0  0  0  0  0  0  0  0  0  0  0
    5.4469   -3.1732    0.0000 C   0  0  0  0  0  0  0  0  0  0  0  0
    6.1757   -2.7901    0.0000 C   0  0  0  0  0  0  0  0  0  0  0  0
   -1.3617    1.9197    0.0000 C   0  0  0  0  0  0  0  0  0  0  0  0
   11.2477    0.1749    0.0000 C   0  0  0  0  0  0  0  0  0  0  0  0
  2  3  1  0
  3  1  1  0
  4 11  1  0
  5  1  1  0
  6  5  2  0
  7  4  1  0
  8  9  2  0
  9  1  1  0
 10  8  1  0
 11 12  2  0
 12 18  1  0
 13  2  1  0
 14  7  1  0
 15  4  2  0
 16  4  2  0
 17  3  2  0
 18 23  2  0
 19 14  2  0
 20 10  1  0
 21 10  1  0
 22 10  1  0
 23 29  1  0
 24 28  2  0
 25 13  1  0
 26  6  1  0
 27  8  1  0
 28 25  1  0
 29 25  2  0
 30  9  1  0
 31 11  1  0
 32 12  1  0
 33 14  1  0
 34 26  1  0
 35 33  1  0
 36 34  1  0
 37 39  1  0
 38 42  1  0
 39 41  1  0
 40 35  1  0
 41 40  1  0
 42 30  2  0
 43 32  2  0
 44 43  1  0
 45 36  1  0
 46 37  1  0
  2  6  1  0
 38 27  2  0
 18 24  1  0
 31 44  2  0
M  END
>  <From>  (1) 
www.bindingDB.org

>  <BindingDB Reactant_set_id>  (1) 
50002533

>  <Ligand InChI>  (1) 
InChI=1S/C34H39F3N4O4S/c1-3-5-7-8-9-19-32(42)39-46(44,45)30-17-13-10-14-27(30)26-22-20-25(21-23-26)24-40-31(18-6-4-2)38-41(33(40)43)29-16-12-11-15-28(29)34(35,36)37/h10-17,20-23H,3-9,18-19,24H2,1-2H3,(H,39,42)

>  <Ligand InChI Key>  (1) 
FEZRQMGQHANOOE-UHFFFAOYSA-N

>  <BindingDB MonomerID>  (1) 
50039915

>  <BindingDB Ligand Name>  (1) 
4'-[3-Butyl-5-oxo-1-(2-trifluoromethyl-phenyl)-1,5-dihydro-[1,2,4]triazol-4-ylmethyl]-biphenyl-2-sulfonic acid octanoyl-amide::CHEMBL274712

>  <Target Name>  (1) 
Type-1 angiotensin II receptor

>  <Target Source Organism According to Curator or DataSource>  (1) 
Oryctolagus cuniculus

>  <Ki (nM)>  (1) 


>  <IC50 (nM)>  (1) 
 2.9

>  <Kd (nM)>  (1) 


>  <EC50 (nM)>  (1) 


>  <kon (M-1-s-1)>  (1) 


>  <koff (s-1)>  (1) 


>  <pH>  (1) 


>  <Temp C>  (1) 


>  <Curation/DataSource>  (1) 
ChEMBL

>  <Article DOI>  (1) 
10.1016/S0960-894X(01)81132-X

>  <BindingDB Entry DOI>  (1) 
10.7270/Q2057FT4

>  <PMID>  (1) 


>  <PubChem AID>  (1) 


>  <Patent Number>  (1) 


>  <Authors>  (1) 
Chang, LL; Ashton, WT; Flanagan, KL; Naylor, EM; Chakravarty, PK; Patchett, AA; Greenlee, WJ; Bendesky, RJ; Chen, TB; Faust, KA; Kling, PJ; Schaffer, LW; Schorn, TW; Zingaro, GJ; Chang, RS; Lotti, VJ; Kivlighn, SD; Siegl, PK

>  <Institution>  (1) 
TBA

>  <Link to Ligand in BindingDB>  (1) 
http://www.bindingdb.org/bind/chemsearch/marvin/MolStructure.jsp?monomerid=50039915

>  <Link to Ligand-Target Pair in BindingDB>  (1) 
http://www.bindingdb.org/jsp/dbsearch/PrimarySearch_ki.jsp?energyterm=kJ/mole&tag=r21&monomerid=50039915&enzyme=Type-1+angiotensin+II+receptor&column=ki&startPg=0&Increment=50&submit=Search

>  <Ligand HET ID in PDB>  (1) 


>  <PDB ID(s) for Ligand-Target Complex>  (1) 


>  <PubChem CID of Ligand>  (1) 
10055096

>  <PubChem SID of Ligand>  (1) 
103947110

>  <ChEBI ID of Ligand>  (1) 


>  <ChEMBL ID of Ligand>  (1) 
CHEMBL274712

>  <DrugBank ID of Ligand>  (1) 


>  <IUPHAR_GRAC ID of Ligand>  (1) 


>  <KEGG ID of Ligand>  (1) 
C16236

>  <ZINC ID of Ligand>  (1) 
ZINC49599942

>  <Number of Protein Chains in Target (bigger than 1 implies a multichain complex)>  (1) 
1

>  <BindingDB Target Chain Sequence>  (1) 
MMLNSSTEDGIKRIQDDCPKAGRHNYIFVMIPTLYSIIFVVGIFGNSLAVIVIYFYMKLKTVASVFLLNLALADLCFLLTLPLWAVYTAMEYRWPFGNYLCKIASASVSFNLYASVFLLTCLSIDRYLAIVHPMKSRLRRTMLVAKVTCIIIWLLAGLASLPAIIHRNVFFIENTNITVCAFHYESQNSTLPIGLGLTKNILGFLFPFLIILTSYTLIWKALKKAYEIQKNKPRNDDIFKIIMAIVLFFFFSWVPHQIFTFLDVLIQLGVIHDCRIADIVDTAMPITICIAYFNNCLNPLFYGFLGKKFKKYFLQLLKYIPPKAKSHSNLSTKMSTLSYRPSDNVSSSSKKPVPCFEVE

>  <PDB ID(s) of Target Chain>  (1) 
6DO1,6OS0,6OS1,6OS2

>  <UniProt (SwissProt) Recommended Name of Target Chain>  (1) 
Type-1 angiotensin II receptor

>  <UniProt (SwissProt) Entry Name of Target Chain>  (1) 
AGTR1_RABIT

>  <UniProt (SwissProt) Primary ID of Target Chain>  (1) 
P34976

>  <UniProt (SwissProt) Secondary ID(s) of Target Chain>  (1) 


>  <UniProt (SwissProt) Alternative ID(s) of Target Chain>  (1) 


>  <UniProt (TrEMBL) Submitted Name of Target Chain>  (1) 


>  <UniProt (TrEMBL) Entry Name of Target Chain>  (1) 


>  <UniProt (TrEMBL) Primary ID of Target Chain>  (1) 


>  <UniProt (TrEMBL) Secondary ID(s) of Target Chain>  (1) 


>  <UniProt (TrEMBL) Alternative ID(s) of Target Chain>  (1) 


$$$$
