
     RDKit          2D

 35 38  0  0  0  0  0  0  0  0999 V2000
    3.3068   -1.3320    0.0000 N   0  0  0  0  0  0  0  0  0  0  0  0
    3.3068   -2.1670    0.0000 C   0  0  0  0  0  0  0  0  0  0  0  0
    2.5845   -2.5803    0.0000 N   0  0  0  0  0  0  0  0  0  0  0  0
    2.5845   -0.9186    0.0000 C   0  0  0  0  0  0  0  0  0  0  0  0
    1.8706   -1.3320    0.0000 C   0  0  0  0  0  0  0  0  0  0  0  0
    1.8706   -2.1670    0.0000 C   0  0  0  0  0  0  0  0  0  0  0  0
    4.7265   -6.3005    0.0000 C   0  0  0  0  0  0  0  0  0  0  0  0
    3.4196   -6.5761    0.0000 N   0  0  0  0  0  0  0  0  0  0  0  0
    3.9707   -5.9623    0.0000 N   0  0  0  0  0  0  0  0  0  0  0  0
    3.8246   -7.2943    0.0000 N   0  0  0  0  0  0  0  0  0  0  0  0
    4.0250   -0.9144    0.0000 C   0  0  0  0  0  0  0  0  0  0  0  0
    4.6388   -7.1189    0.0000 N   0  0  0  0  0  0  0  0  0  0  0  0
    4.0208   -0.0877    0.0000 C   0  0  0  0  0  0  0  0  0  0  0  0
    5.4405   -5.8872    0.0000 C   0  0  0  0  0  0  0  0  0  0  0  0
    5.4405   -5.0605    0.0000 C   0  0  0  0  0  0  0  0  0  0  0  0
    2.5845   -3.4070    0.0000 C   0  0  0  0  0  0  0  0  0  0  0  0
    4.0250   -2.5803    0.0000 O   0  0  0  0  0  0  0  0  0  0  0  0
    4.7390    0.3257    0.0000 N   0  0  0  0  0  0  0  0  0  0  0  0
    4.7265   -4.6471    0.0000 C   0  0  0  0  0  0  0  0  0  0  0  0
    2.5845   -0.0919    0.0000 O   0  0  0  0  0  0  0  0  0  0  0  0
    3.3068    0.3215    0.0000 O   0  0  0  0  0  0  0  0  0  0  0  0
    4.7265   -3.8121    0.0000 C   0  0  0  0  0  0  0  0  0  0  0  0
    4.0125   -5.0605    0.0000 C   0  0  0  0  0  0  0  0  0  0  0  0
    3.2985   -3.8204    0.0000 C   0  0  0  0  0  0  0  0  0  0  0  0
    4.0125   -3.4070    0.0000 C   0  0  0  0  0  0  0  0  0  0  0  0
    3.2985   -4.6471    0.0000 C   0  0  0  0  0  0  0  0  0  0  0  0
    1.1524   -2.5803    0.0000 C   0  0  0  0  0  0  0  0  0  0  0  0
    6.1544   -6.3005    0.0000 C   0  0  0  0  0  0  0  0  0  0  0  0
    6.1544   -4.6471    0.0000 C   0  0  0  0  0  0  0  0  0  0  0  0
    5.4530   -0.0877    0.0000 C   0  0  0  0  0  0  0  0  0  0  0  0
    4.7348    1.1524    0.0000 C   0  0  0  0  0  0  0  0  0  0  0  0
    0.4384   -2.1670    0.0000 C   0  0  0  0  0  0  0  0  0  0  0  0
    6.8684   -5.8872    0.0000 C   0  0  0  0  0  0  0  0  0  0  0  0
    6.8684   -5.0521    0.0000 C   0  0  0  0  0  0  0  0  0  0  0  0
   -0.2839   -2.5803    0.0000 C   0  0  0  0  0  0  0  0  0  0  0  0
  2  1  1  0
  3  2  1  0
  4  1  1  0
  5  4  1  0
  6  5  2  0
  7 14  1  0
  8  9  1  0
  9  7  1  0
 10 12  1  0
 11  1  1  0
 12  7  2  0
 13 11  1  0
 14 15  1  0
 15 19  1  0
 16  3  1  0
 17  2  2  0
 18 13  1  0
 19 23  2  0
 20  4  2  0
 21 13  2  0
 22 25  2  0
 23 26  1  0
 24 16  1  0
 25 24  1  0
 26 24  2  0
 27  6  1  0
 28 14  2  0
 29 15  2  0
 30 18  1  0
 31 18  1  0
 32 27  1  0
 33 34  2  0
 34 29  1  0
 35 32  1  0
  6  3  1  0
 22 19  1  0
 28 33  1  0
  8 10  2  0
M  END
>  <From>  (1) 
www.bindingDB.org

>  <BindingDB Reactant_set_id>  (1) 
50473192

>  <Ligand InChI>  (1) 
InChI=1S/C25H27N7O3/c1-4-7-19-14-22(33)32(16-23(34)30(2)3)25(35)31(19)15-17-10-12-18(13-11-17)20-8-5-6-9-21(20)24-26-28-29-27-24/h5-6,8-14H,4,7,15-16H2,1-3H3,(H,26,27,28,29)

>  <Ligand InChI Key>  (1) 
CBTOFFZALGYFNR-UHFFFAOYSA-N

>  <BindingDB MonomerID>  (1) 
50285171

>  <BindingDB Ligand Name>  (1) 
2-{2,6-Dioxo-4-propyl-3-[2'-(1H-tetrazol-5-yl)-biphenyl-4-ylmethyl]-3,6-dihydro-2H-pyrimidin-1-yl}-N,N-dimethyl-acetamide::CHEMBL62269

>  <Target Name>  (1) 
Type-1 angiotensin II receptor B

>  <Target Source Organism According to Curator or DataSource>  (1) 
Rattus

>  <Ki (nM)>  (1) 


>  <IC50 (nM)>  (1) 
 0.650000

>  <Kd (nM)>  (1) 


>  <EC50 (nM)>  (1) 


>  <kon (M-1-s-1)>  (1) 


>  <koff (s-1)>  (1) 


>  <pH>  (1) 


>  <Temp C>  (1) 


>  <Curation/DataSource>  (1) 
ChEMBL

>  <Article DOI>  (1) 
10.1016/0960-894X(95)00370-9

>  <BindingDB Entry DOI>  (1) 
10.7270/Q2SF2W4J

>  <PMID>  (1) 


>  <PubChem AID>  (1) 


>  <Patent Number>  (1) 


>  <Authors>  (1) 
Dorsch, D; Mederski, WW; Osswald, M; Beier, N; Schelling, P

>  <Institution>  (1) 
TBA

>  <Link to Ligand in BindingDB>  (1) 
http://www.bindingdb.org/bind/chemsearch/marvin/MolStructure.jsp?monomerid=50285171

>  <Link to Ligand-Target Pair in BindingDB>  (1) 
http://www.bindingdb.org/jsp/dbsearch/PrimarySearch_ki.jsp?energyterm=kJ/mole&tag=r21&monomerid=50285171&enzyme=Type-1+angiotensin+II+receptor+B&column=ki&startPg=0&Increment=50&submit=Search

>  <Ligand HET ID in PDB>  (1) 


>  <PDB ID(s) for Ligand-Target Complex>  (1) 


>  <PubChem CID of Ligand>  (1) 
10457566

>  <PubChem SID of Ligand>  (1) 
104126742

>  <ChEBI ID of Ligand>  (1) 


>  <ChEMBL ID of Ligand>  (1) 
CHEMBL62269

>  <DrugBank ID of Ligand>  (1) 


>  <IUPHAR_GRAC ID of Ligand>  (1) 


>  <KEGG ID of Ligand>  (1) 


>  <ZINC ID of Ligand>  (1) 
ZINC26170600

>  <Number of Protein Chains in Target (bigger than 1 implies a multichain complex)>  (1) 
1

>  <BindingDB Target Chain Sequence>  (1) 
MTLNSSTEDGIKRIQDDCPKAGRHNYIFVMIPTLYSIIFVVGIFGNSLVVIVIYFYMKLKTVASVFLLNLALADLCFLLTLPLWAVYTAMEYRWPFGNHLCKIASASVSFNLYASVFLLTCLSIDRYLAIVHPMKSRLRRTMLVAKVTCIIIWLMAGLASLPAVIYRNVYFIENTNITVCAFHYESQNSTLPIGLGLTKNILGFVFPFLIILTSYTLIWKALKKAYKIQKNTPRNDDIFRIIMAIVLFFFFSWVPHQIFTFLDVLIQLGIIRDCEIADIVDTAMPITICIAYFNNCLNPLFYGFLGKKFKKYFLQLLKYIPPTAKSHAGLSTKMSTLSYRPSDNMSSSAKKSASFFEVE

>  <PDB ID(s) of Target Chain>  (1) 


>  <UniProt (SwissProt) Recommended Name of Target Chain>  (1) 
Type-1 angiotensin II receptor B

>  <UniProt (SwissProt) Entry Name of Target Chain>  (1) 
AGTRB_RAT

>  <UniProt (SwissProt) Primary ID of Target Chain>  (1) 
P29089

>  <UniProt (SwissProt) Secondary ID(s) of Target Chain>  (1) 


>  <UniProt (SwissProt) Alternative ID(s) of Target Chain>  (1) 


>  <UniProt (TrEMBL) Submitted Name of Target Chain>  (1) 


>  <UniProt (TrEMBL) Entry Name of Target Chain>  (1) 


>  <UniProt (TrEMBL) Primary ID of Target Chain>  (1) 


>  <UniProt (TrEMBL) Secondary ID(s) of Target Chain>  (1) 


>  <UniProt (TrEMBL) Alternative ID(s) of Target Chain>  (1) 


$$$$
