
     RDKit          2D

 34 38  0  0  0  0  0  0  0  0999 V2000
    3.7429   -3.2017    0.0000 N   0  0  0  0  0  0  0  0  0  0  0  0
    2.6548   -2.4155    0.0000 C   0  0  0  0  0  0  0  0  0  0  0  0
    3.4865   -2.4098    0.0000 C   0  0  0  0  0  0  0  0  0  0  0  0
    2.3984   -3.2017    0.0000 N   0  0  0  0  0  0  0  0  0  0  0  0
    3.0763   -3.6802    0.0000 C   0  0  0  0  0  0  0  0  0  0  0  0
    8.0326   -4.4835    0.0000 C   0  0  0  0  0  0  0  0  0  0  0  0
    7.6225   -3.7770    0.0000 C   0  0  0  0  0  0  0  0  0  0  0  0
    7.6225   -5.2127    0.0000 C   0  0  0  0  0  0  0  0  0  0  0  0
    1.8344   -2.4155    0.0000 C   0  0  0  0  0  0  0  0  0  0  0  0
    2.9112   -1.6294    0.0000 C   0  0  0  0  0  0  0  0  0  0  0  0
    4.3239   -3.7770    0.0000 C   0  0  0  0  0  0  0  0  0  0  0  0
    1.5894   -1.6294    0.0000 C   0  0  0  0  0  0  0  0  0  0  0  0
    2.2446   -1.1508    0.0000 C   0  0  0  0  0  0  0  0  0  0  0  0
    3.9708   -1.7433    0.0000 O   0  0  0  0  0  0  0  0  0  0  0  0
    6.7908   -3.7770    0.0000 C   0  0  0  0  0  0  0  0  0  0  0  0
    8.0326   -5.9191    0.0000 O   0  0  0  0  0  0  0  0  0  0  0  0
    6.3806   -4.4949    0.0000 C   0  0  0  0  0  0  0  0  0  0  0  0
    6.3748   -3.0592    0.0000 C   0  0  0  0  0  0  0  0  0  0  0  0
    5.1500   -3.7770    0.0000 C   0  0  0  0  0  0  0  0  0  0  0  0
    6.7908   -5.2127    0.0000 O   0  0  0  0  0  0  0  0  0  0  0  0
    3.0650   -4.5119    0.0000 C   0  0  0  0  0  0  0  0  0  0  0  0
    5.5545   -3.0592    0.0000 C   0  0  0  0  0  0  0  0  0  0  0  0
    5.5545   -4.4949    0.0000 C   0  0  0  0  0  0  0  0  0  0  0  0
    8.8587   -4.4835    0.0000 C   0  0  0  0  0  0  0  0  0  0  0  0
    8.0213   -3.0592    0.0000 C   0  0  0  0  0  0  0  0  0  0  0  0
    2.1705   -0.3476    0.0000 C   0  0  0  0  0  0  0  0  0  0  0  0
    0.8432   -1.2989    0.0000 C   0  0  0  0  0  0  0  0  0  0  0  0
    2.3585   -4.9221    0.0000 C   0  0  0  0  0  0  0  0  0  0  0  0
    2.3585   -5.7482    0.0000 C   0  0  0  0  0  0  0  0  0  0  0  0
    9.2689   -3.7657    0.0000 C   0  0  0  0  0  0  0  0  0  0  0  0
    8.8530   -3.0479    0.0000 C   0  0  0  0  0  0  0  0  0  0  0  0
    0.7577   -0.4956    0.0000 C   0  0  0  0  0  0  0  0  0  0  0  0
    1.4243   -0.0057    0.0000 C   0  0  0  0  0  0  0  0  0  0  0  0
    1.6464   -6.1584    0.0000 C   0  0  0  0  0  0  0  0  0  0  0  0
  2  3  1  0
  3  1  1  0
  4  5  2  0
  5  1  1  0
  6  7  2  0
  7 15  1  0
  8  6  1  0
  9  2  1  0
 10  2  1  0
 11  1  1  0
 12  9  1  0
 13 10  1  0
 14  3  2  0
 15 17  2  0
 16  8  2  0
 17 23  1  0
 18 22  2  0
 19 11  1  0
 20  8  1  0
 21  5  1  0
 22 19  1  0
 23 19  2  0
 24  6  1  0
 25  7  1  0
 26 13  2  0
 27 12  2  0
 28 21  1  0
 29 28  1  0
 30 31  1  0
 31 25  2  0
 32 27  1  0
 33 26  1  0
 34 29  1  0
  4  2  1  0
 15 18  1  0
 12 13  1  0
 33 32  2  0
 24 30  2  0
M  END
>  <From>  (1) 
www.bindingDB.org

>  <BindingDB Reactant_set_id>  (1) 
50067214

>  <Ligand InChI>  (1) 
InChI=1S/C29H28N2O3/c1-2-3-12-26-30-29(17-22-8-4-5-9-23(22)18-29)28(34)31(26)19-20-13-15-21(16-14-20)24-10-6-7-11-25(24)27(32)33/h4-11,13-16H,2-3,12,17-19H2,1H3,(H,32,33)

>  <Ligand InChI Key>  (1) 
YIXCSIBUXLSBBA-UHFFFAOYSA-N

>  <BindingDB MonomerID>  (1) 
50042232

>  <BindingDB Ligand Name>  (1) 
2-{4-[2-butyl-5-oxospiro[4,5-dihydro-1H-imidazole-4,2'-(2',3'-dihydro-1'H-indene)]-1-ylmethyl]phenyl}benzoic acid::CHEMBL114983

>  <Target Name>  (1) 
Type-1 angiotensin II receptor B

>  <Target Source Organism According to Curator or DataSource>  (1) 
Rattus

>  <Ki (nM)>  (1) 


>  <IC50 (nM)>  (1) 
 60

>  <Kd (nM)>  (1) 


>  <EC50 (nM)>  (1) 


>  <kon (M-1-s-1)>  (1) 


>  <koff (s-1)>  (1) 


>  <pH>  (1) 


>  <Temp C>  (1) 


>  <Curation/DataSource>  (1) 
ChEMBL

>  <Article DOI>  (1) 
10.1021/jm00074a018

>  <BindingDB Entry DOI>  (1) 
10.7270/Q22Z14M0

>  <PMID>  (1) 
8230127

>  <PubChem AID>  (1) 


>  <Patent Number>  (1) 


>  <Authors>  (1) 
Bernhart, CA; Perreaut, PM; Ferrari, BP; Muneaux, YA; Assens, JL; Clement, J; Haudricourt, F; Muneaux, CF; Taillades, JE; Vignal, MA

>  <Institution>  (1) 
Sanofi Recherche

>  <Link to Ligand in BindingDB>  (1) 
http://www.bindingdb.org/bind/chemsearch/marvin/MolStructure.jsp?monomerid=50042232

>  <Link to Ligand-Target Pair in BindingDB>  (1) 
http://www.bindingdb.org/jsp/dbsearch/PrimarySearch_ki.jsp?energyterm=kJ/mole&tag=r21&monomerid=50042232&enzyme=Type-1+angiotensin+II+receptor+B&column=ki&startPg=0&Increment=50&submit=Search

>  <Ligand HET ID in PDB>  (1) 


>  <PDB ID(s) for Ligand-Target Complex>  (1) 


>  <PubChem CID of Ligand>  (1) 
44341824

>  <PubChem SID of Ligand>  (1) 
103973840

>  <ChEBI ID of Ligand>  (1) 


>  <ChEMBL ID of Ligand>  (1) 
CHEMBL114983

>  <DrugBank ID of Ligand>  (1) 


>  <IUPHAR_GRAC ID of Ligand>  (1) 


>  <KEGG ID of Ligand>  (1) 


>  <ZINC ID of Ligand>  (1) 
ZINC13833571

>  <Number of Protein Chains in Target (bigger than 1 implies a multichain complex)>  (1) 
1

>  <BindingDB Target Chain Sequence>  (1) 
MTLNSSTEDGIKRIQDDCPKAGRHNYIFVMIPTLYSIIFVVGIFGNSLVVIVIYFYMKLKTVASVFLLNLALADLCFLLTLPLWAVYTAMEYRWPFGNHLCKIASASVSFNLYASVFLLTCLSIDRYLAIVHPMKSRLRRTMLVAKVTCIIIWLMAGLASLPAVIYRNVYFIENTNITVCAFHYESQNSTLPIGLGLTKNILGFVFPFLIILTSYTLIWKALKKAYKIQKNTPRNDDIFRIIMAIVLFFFFSWVPHQIFTFLDVLIQLGIIRDCEIADIVDTAMPITICIAYFNNCLNPLFYGFLGKKFKKYFLQLLKYIPPTAKSHAGLSTKMSTLSYRPSDNMSSSAKKSASFFEVE

>  <PDB ID(s) of Target Chain>  (1) 


>  <UniProt (SwissProt) Recommended Name of Target Chain>  (1) 
Type-1 angiotensin II receptor B

>  <UniProt (SwissProt) Entry Name of Target Chain>  (1) 
AGTRB_RAT

>  <UniProt (SwissProt) Primary ID of Target Chain>  (1) 
P29089

>  <UniProt (SwissProt) Secondary ID(s) of Target Chain>  (1) 


>  <UniProt (SwissProt) Alternative ID(s) of Target Chain>  (1) 


>  <UniProt (TrEMBL) Submitted Name of Target Chain>  (1) 


>  <UniProt (TrEMBL) Entry Name of Target Chain>  (1) 


>  <UniProt (TrEMBL) Primary ID of Target Chain>  (1) 


>  <UniProt (TrEMBL) Secondary ID(s) of Target Chain>  (1) 


>  <UniProt (TrEMBL) Alternative ID(s) of Target Chain>  (1) 


$$$$
