 
     RDKit          2D

 22 24  0  0  0  0  0  0  0  0999 V2000
   -1.9639    1.1369    0.0000 C   0  0  0  0  0  0  0  0  0  0  0  0
   -1.2435    1.5389    0.0000 C   0  0  0  0  0  0  0  0  0  0  0  0
   -0.5351    1.1161    0.0000 C   0  0  0  0  0  0  0  0  0  0  0  0
   -0.5471    0.2912    0.0000 C   0  0  0  0  0  0  0  0  0  0  0  0
    0.2336    0.0248    0.0000 N   0  0  0  0  0  0  0  0  0  0  0  0
    0.7281    0.6852    0.0000 C   0  0  0  0  0  0  0  0  0  0  0  0
    0.2530    1.3596    0.0000 C   0  0  0  0  0  0  0  0  0  0  0  0
    0.5193    2.1404    0.0000 C   0  0  0  0  0  0  0  0  0  0  0  0
   -0.0235    2.7614    0.0000 O   0  0  0  0  0  0  0  0  0  0  0  0
    1.3287    2.3001    0.0000 O   0  0  0  0  0  0  0  0  0  0  0  0
    1.5530    0.6732    0.0000 C   0  0  0  0  0  0  0  0  0  0  0  0
    1.9759    1.3815    0.0000 O   0  0  0  0  0  0  0  0  0  0  0  0
    0.4770   -0.7632    0.0000 C   0  0  0  0  0  0  0  0  0  0  0  0
    1.2814   -0.9465    0.0000 O   0  0  0  0  0  0  0  0  0  0  0  0
   -0.0837   -1.3682    0.0000 C   0  0  0  0  0  0  0  0  0  0  0  0
   -0.8881   -1.1849    0.0000 C   0  0  0  0  0  0  0  0  0  0  0  0
   -1.4490   -1.7899    0.0000 C   0  0  0  0  0  0  0  0  0  0  0  0
   -1.2055   -2.5781    0.0000 C   0  0  0  0  0  0  0  0  0  0  0  0
   -0.4011   -2.7614    0.0000 C   0  0  0  0  0  0  0  0  0  0  0  0
    0.1597   -2.1564    0.0000 C   0  0  0  0  0  0  0  0  0  0  0  0
   -1.2675   -0.1107    0.0000 C   0  0  0  0  0  0  0  0  0  0  0  0
   -1.9759    0.3121    0.0000 C   0  0  0  0  0  0  0  0  0  0  0  0
  2  1  2  0
  3  2  1  0
  4  3  2  0
  4  5  1  0
  6  5  1  0
  3  7  1  0
  7  6  2  0
  7  8  1  0
  8  9  2  0
  8 10  1  0
  6 11  1  0
 11 12  1  0
  5 13  1  0
 13 14  2  0
 13 15  1  0
 15 16  2  0
 16 17  1  0
 17 18  2  0
 18 19  1  0
 20 15  1  0
 19 20  2  0
 21  4  1  0
 22 21  2  0
  1 22  1  0
M  END
>  <From>  (1) 
www.bindingDB.org

>  <BindingDB Reactant_set_id>  (1) 
51523979

>  <Ligand InChI>  (1) 
InChI=1S/C17H13NO4/c19-10-14-15(17(21)22)12-8-4-5-9-13(12)18(14)16(20)11-6-2-1-3-7-11/h1-9,19H,10H2,(H,21,22)

>  <Ligand InChI Key>  (1) 
DLSFPSBBLHNWHS-UHFFFAOYSA-N

>  <BindingDB MonomerID>  (1) 
50613297

>  <BindingDB Ligand Name>  (1) 
CHEMBL5283862

>  <Target Name>  (1) 
Type-1 angiotensin II receptor

>  <Target Source Organism According to Curator or DataSource>  (1) 
Homo sapiens

>  <Ki (nM)>  (1) 


>  <IC50 (nM)>  (1) 
 31

>  <Kd (nM)>  (1) 


>  <EC50 (nM)>  (1) 


>  <kon (M-1-s-1)>  (1) 


>  <koff (s-1)>  (1) 


>  <pH>  (1) 


>  <Temp C>  (1) 


>  <Curation/DataSource>  (1) 
ChEMBL

>  <Article DOI>  (1) 


>  <BindingDB Entry DOI>  (1) 
10.7270/Q2C82FJ3

>  <PMID>  (1) 
37236375

>  <PubChem AID>  (1) 


>  <Patent Number>  (1) 


>  <Authors>  (1) 
n/a

>  <Institution>  (1) 
n/a

>  <Link to Ligand in BindingDB>  (1) 
http://www.bindingdb.org/bind/chemsearch/marvin/MolStructure.jsp?monomerid=50613297

>  <Link to Ligand-Target Pair in BindingDB>  (1) 
http://www.bindingdb.org/jsp/dbsearch/PrimarySearch_ki.jsp?energyterm=kJ/mole&tag=r21&monomerid=50613297&enzyme=Type-1+angiotensin+II+receptor&column=ki&startPg=0&Increment=50&submit=Search

>  <Ligand HET ID in PDB>  (1) 


>  <PDB ID(s) for Ligand-Target Complex>  (1) 


>  <PubChem CID of Ligand>  (1) 
171348584

>  <PubChem SID of Ligand>  (1) 
494503045

>  <ChEBI ID of Ligand>  (1) 


>  <ChEMBL ID of Ligand>  (1) 


>  <DrugBank ID of Ligand>  (1) 


>  <IUPHAR_GRAC ID of Ligand>  (1) 


>  <KEGG ID of Ligand>  (1) 


>  <ZINC ID of Ligand>  (1) 


>  <Number of Protein Chains in Target (bigger than 1 implies a multichain complex)>  (1) 
1

>  <BindingDB Target Chain Sequence>  (1) 
MILNSSTEDGIKRIQDDCPKAGRHNYIFVMIPTLYSIIFVVGIFGNSLVVIVIYFYMKLKTVASVFLLNLALADLCFLLTLPLWAVYTAMEYRWPFGNYLCKIASASVSFNLYASVFLLTCLSIDRYLAIVHPMKSRLRRTMLVAKVTCIIIWLLAGLASLPAIIHRNVFFIENTNITVCAFHYESQNSTLPIGLGLTKNILGFLFPFLIILTSYTLIWKALKKAYEIQKNKPRNDDIFKIIMAIVLFFFFSWIPHQIFTFLDVLIQLGIIRDCRIADIVDTAMPITICIAYFNNCLNPLFYGFLGKKFKRYFLQLLKYIPPKAKSHSNLSTKMSTLSYRPSDNVSSSTKKPAPCFEVE

>  <PDB ID(s) of Target Chain>  (1) 
6DO1,6OS0,6OS1,6OS2

>  <UniProt (SwissProt) Recommended Name of Target Chain>  (1) 
Type-1 angiotensin II receptor

>  <UniProt (SwissProt) Entry Name of Target Chain>  (1) 
AGTR1_HUMAN

>  <UniProt (SwissProt) Primary ID of Target Chain>  (1) 
P30556

>  <UniProt (SwissProt) Secondary ID(s) of Target Chain>  (1) 
Q13725 Q8TBK4

>  <UniProt (SwissProt) Alternative ID(s) of Target Chain>  (1) 


>  <UniProt (TrEMBL) Submitted Name of Target Chain>  (1) 


>  <UniProt (TrEMBL) Entry Name of Target Chain>  (1) 


>  <UniProt (TrEMBL) Primary ID of Target Chain>  (1) 


>  <UniProt (TrEMBL) Secondary ID(s) of Target Chain>  (1) 


>  <UniProt (TrEMBL) Alternative ID(s) of Target Chain>  (1) 


$$$$
