
     RDKit          2D

 32 34  0  0  0  0  0  0  0  0999 V2000
    1.4042   -0.7000    0.0000 C   0  0  0  0  0  0  0  0  0  0  0  0
    0.7917   -1.2542    0.0000 C   0  0  0  0  0  0  0  0  0  0  0  0
    2.1250   -1.1125    0.0000 N   0  0  0  0  0  0  0  0  0  0  0  0
    1.1292   -2.0042    0.0000 N   0  0  0  0  0  0  0  0  0  0  0  0
    1.9500   -1.9167    0.0000 C   0  0  0  0  0  0  0  0  0  0  0  0
    1.3250    0.1250    0.0000 C   0  0  0  0  0  0  0  0  0  0  0  0
    6.4250   -1.9417    0.0000 C   0  0  0  0  0  0  0  0  0  0  0  0
   -0.0250   -1.1042    0.0000 C   0  0  0  0  0  0  0  0  0  0  0  0
    5.7042   -2.3542    0.0000 C   0  0  0  0  0  0  0  0  0  0  0  0
    6.4250   -1.1167    0.0000 C   0  0  0  0  0  0  0  0  0  0  0  0
    2.8417   -0.7000    0.0000 C   0  0  0  0  0  0  0  0  0  0  0  0
    4.9917   -1.9417    0.0000 C   0  0  0  0  0  0  0  0  0  0  0  0
    0.5667    0.4708    0.0000 O   0  0  0  0  0  0  0  0  0  0  0  0
    5.7042   -0.7042    0.0000 O   0  0  0  0  0  0  0  0  0  0  0  0
    4.2750   -2.3542    0.0000 C   0  0  0  0  0  0  0  0  0  0  0  0
    4.9917   -1.1167    0.0000 C   0  0  0  0  0  0  0  0  0  0  0  0
    3.5625   -1.1167    0.0000 C   0  0  0  0  0  0  0  0  0  0  0  0
    1.9917    0.6083    0.0000 O   0  0  0  0  0  0  0  0  0  0  0  0
    7.1375   -0.7042    0.0000 O   0  0  0  0  0  0  0  0  0  0  0  0
   -0.8375   -0.9542    0.0000 O   0  0  0  0  0  0  0  0  0  0  0  0
    2.4917   -2.5375    0.0000 C   0  0  0  0  0  0  0  0  0  0  0  0
    3.5625   -1.9417    0.0000 C   0  0  0  0  0  0  0  0  0  0  0  0
    4.2750   -0.7042    0.0000 C   0  0  0  0  0  0  0  0  0  0  0  0
    7.1417   -2.3542    0.0000 C   0  0  0  0  0  0  0  0  0  0  0  0
    5.7042   -3.1792    0.0000 C   0  0  0  0  0  0  0  0  0  0  0  0
   -0.1750   -1.9167    0.0000 C   0  0  0  0  0  0  0  0  0  0  0  0
    0.1250   -0.2917    0.0000 C   0  0  0  0  0  0  0  0  0  0  0  0
    2.2292   -3.3167    0.0000 C   0  0  0  0  0  0  0  0  0  0  0  0
   -0.9500   -2.1917    0.0000 C   0  0  0  0  0  0  0  0  0  0  0  0
    7.1417   -3.1792    0.0000 C   0  0  0  0  0  0  0  0  0  0  0  0
    6.4167   -3.5917    0.0000 C   0  0  0  0  0  0  0  0  0  0  0  0
    2.7792   -3.9292    0.0000 C   0  0  0  0  0  0  0  0  0  0  0  0
  2  1  2  0
  3  1  1  0
  4  2  1  0
  5  3  1  0
  6  1  1  0
  7  9  2  0
  8  2  1  0
  9 12  1  0
 10  7  1  0
 11  3  1  0
 12 16  2  0
 13  6  2  0
 14 10  2  0
 15 22  2  0
 16 23  1  0
 17 11  1  0
 18  6  1  0
 19 10  1  0
 20  8  1  0
 21  5  1  0
 22 17  1  0
 23 17  2  0
 24  7  1  0
 25  9  1  0
 26  8  1  0
 27  8  1  0
 28 21  1  0
 29 26  1  0
 30 31  1  0
 31 25  2  0
 32 28  1  0
  4  5  2  0
 15 12  1  0
 30 24  2  0
M  END
>  <From>  (1) 
www.bindingDB.org

>  <BindingDB Reactant_set_id>  (1) 
50079608

>  <Ligand InChI>  (1) 
InChI=1S/C25H28N2O5/c1-4-8-20-26-22(25(3,32)5-2)21(24(30)31)27(20)15-16-11-13-17(14-12-16)18-9-6-7-10-19(18)23(28)29/h6-7,9-14,32H,4-5,8,15H2,1-3H3,(H,28,29)(H,30,31)

>  <Ligand InChI Key>  (1) 
MEWKBQJQYMCBOJ-UHFFFAOYSA-N

>  <BindingDB MonomerID>  (1) 
50049106

>  <BindingDB Ligand Name>  (1) 
3-(2'-Carboxy-biphenyl-4-ylmethyl)-5-(1-hydroxy-1-methyl-propyl)-2-propyl-3H-imidazole-4-carboxylic acid::CHEMBL116102

>  <Target Name>  (1) 
Type-1 angiotensin II receptor

>  <Target Source Organism According to Curator or DataSource>  (1) 
Bos taurus

>  <Ki (nM)>  (1) 


>  <IC50 (nM)>  (1) 
 51

>  <Kd (nM)>  (1) 


>  <EC50 (nM)>  (1) 


>  <kon (M-1-s-1)>  (1) 


>  <koff (s-1)>  (1) 


>  <pH>  (1) 


>  <Temp C>  (1) 


>  <Curation/DataSource>  (1) 
ChEMBL

>  <Article DOI>  (1) 
10.1021/jm950450f

>  <BindingDB Entry DOI>  (1) 
10.7270/Q28S4P18

>  <PMID>  (1) 
8568823

>  <PubChem AID>  (1) 


>  <Patent Number>  (1) 


>  <Authors>  (1) 
Yanagisawa, H; Amemiya, Y; Kanazaki, T; Shimoji, Y; Fujimoto, K; Kitahara, Y; Sada, T; Mizuno, M; Ikeda, M; Miyamoto, S; Furukawa, Y; Koike, H

>  <Institution>  (1) 
Sankyo Company Ltd

>  <Link to Ligand in BindingDB>  (1) 
http://www.bindingdb.org/bind/chemsearch/marvin/MolStructure.jsp?monomerid=50049106

>  <Link to Ligand-Target Pair in BindingDB>  (1) 
http://www.bindingdb.org/jsp/dbsearch/PrimarySearch_ki.jsp?energyterm=kJ/mole&tag=r21&monomerid=50049106&enzyme=Type-1+angiotensin+II+receptor&column=ki&startPg=0&Increment=50&submit=Search

>  <Ligand HET ID in PDB>  (1) 


>  <PDB ID(s) for Ligand-Target Complex>  (1) 


>  <PubChem CID of Ligand>  (1) 
10646584

>  <PubChem SID of Ligand>  (1) 
103979468

>  <ChEBI ID of Ligand>  (1) 


>  <ChEMBL ID of Ligand>  (1) 
CHEMBL116102

>  <DrugBank ID of Ligand>  (1) 


>  <IUPHAR_GRAC ID of Ligand>  (1) 


>  <KEGG ID of Ligand>  (1) 


>  <ZINC ID of Ligand>  (1) 
ZINC13745635

>  <Number of Protein Chains in Target (bigger than 1 implies a multichain complex)>  (1) 
1

>  <BindingDB Target Chain Sequence>  (1) 
MILNSSTEDGIKRIQDDCPKAGRHNYIFIMIPTLYSIIFVVGIFGNSLVVIVIYFYMKLKTVASVFLLNLALADLCFLLTLPLWAVYTAMEYRWPFGNYLCKIASASVSFNLYASVFLLTCLSIDRYLAIVHPMKSRLRRTMLVAKVTCIIIWLLAGLASLPTIIHRNVFFIENTNITVCAFHYESQNSTLPVGLGLTKNILGFLFPFLIILTSYTLIWKTLKKAYEIQKNKPRKDDIFKIILAIVLFFFFSWVPHQIFTFMDVLIQLGLIRDCKIEDIVDTAMPITICLAYFNNCLNPLFYGFLGKKFKKYFLQLLKYIPPKAKSHSNLSTKMSTLSYRPSENGNSSTKKPAPCIEVE

>  <PDB ID(s) of Target Chain>  (1) 


>  <UniProt (SwissProt) Recommended Name of Target Chain>  (1) 
Type-1 angiotensin II receptor

>  <UniProt (SwissProt) Entry Name of Target Chain>  (1) 
AGTR1_BOVIN

>  <UniProt (SwissProt) Primary ID of Target Chain>  (1) 
P25104

>  <UniProt (SwissProt) Secondary ID(s) of Target Chain>  (1) 


>  <UniProt (SwissProt) Alternative ID(s) of Target Chain>  (1) 


>  <UniProt (TrEMBL) Submitted Name of Target Chain>  (1) 


>  <UniProt (TrEMBL) Entry Name of Target Chain>  (1) 


>  <UniProt (TrEMBL) Primary ID of Target Chain>  (1) 


>  <UniProt (TrEMBL) Secondary ID(s) of Target Chain>  (1) 


>  <UniProt (TrEMBL) Alternative ID(s) of Target Chain>  (1) 


$$$$
