
     RDKit          2D

 42 46  0  0  0  0  0  0  0  0999 V2000
    3.9167   -3.4292    0.0000 S   0  0  0  0  0  0  0  0  0  0  0  0
    0.3542   -2.1917    0.0000 N   0  0  0  0  0  0  0  0  0  0  0  0
    1.0667   -1.7875    0.0000 C   0  0  0  0  0  0  0  0  0  0  0  0
    1.0667   -0.9625    0.0000 C   0  0  0  0  0  0  0  0  0  0  0  0
    4.7417   -3.4292    0.0000 N   0  0  0  0  0  0  0  0  0  0  0  0
   -0.3583   -1.7875    0.0000 C   0  0  0  0  0  0  0  0  0  0  0  0
   -0.3583   -0.9625    0.0000 N   0  0  0  0  0  0  0  0  0  0  0  0
    5.0542   -2.6625    0.0000 C   0  0  0  0  0  0  0  0  0  0  0  0
    0.3542   -0.5417    0.0000 C   0  0  0  0  0  0  0  0  0  0  0  0
    3.9167   -4.2542    0.0000 C   0  0  0  0  0  0  0  0  0  0  0  0
    1.7792   -0.5625    0.0000 C   0  0  0  0  0  0  0  0  0  0  0  0
    5.8667   -2.5542    0.0000 C   0  0  0  0  0  0  0  0  0  0  0  0
    3.2042   -4.6667    0.0000 C   0  0  0  0  0  0  0  0  0  0  0  0
    3.9125   -2.6042    0.0000 O   0  0  0  0  0  0  0  0  0  0  0  0
    3.2000   -3.0167    0.0000 O   0  0  0  0  0  0  0  0  0  0  0  0
    0.3542   -3.0167    0.0000 C   0  0  0  0  0  0  0  0  0  0  0  0
    6.4417   -3.1542    0.0000 S   0  0  0  0  0  0  0  0  0  0  0  0
    1.7917    0.2625    0.0000 C   0  0  0  0  0  0  0  0  0  0  0  0
    1.7792   -2.2000    0.0000 O   0  0  0  0  0  0  0  0  0  0  0  0
    2.4917   -4.2542    0.0000 C   0  0  0  0  0  0  0  0  0  0  0  0
    4.5500   -2.0125    0.0000 O   0  0  0  0  0  0  0  0  0  0  0  0
    6.2667   -1.8292    0.0000 C   0  0  0  0  0  0  0  0  0  0  0  0
    0.3542    0.2833    0.0000 C   0  0  0  0  0  0  0  0  0  0  0  0
    7.1792   -2.7917    0.0000 C   0  0  0  0  0  0  0  0  0  0  0  0
    1.0792    0.6833    0.0000 C   0  0  0  0  0  0  0  0  0  0  0  0
    7.0667   -1.9667    0.0000 C   0  0  0  0  0  0  0  0  0  0  0  0
    1.7792   -4.6667    0.0000 C   0  0  0  0  0  0  0  0  0  0  0  0
    2.4917   -3.4292    0.0000 C   0  0  0  0  0  0  0  0  0  0  0  0
    1.0667   -3.4292    0.0000 C   0  0  0  0  0  0  0  0  0  0  0  0
    2.5042    0.6708    0.0000 C   0  0  0  0  0  0  0  0  0  0  0  0
   -1.0708   -2.2000    0.0000 C   0  0  0  0  0  0  0  0  0  0  0  0
    1.0667   -4.2542    0.0000 C   0  0  0  0  0  0  0  0  0  0  0  0
    1.7792   -3.0167    0.0000 C   0  0  0  0  0  0  0  0  0  0  0  0
    4.6292   -4.6625    0.0000 C   0  0  0  0  0  0  0  0  0  0  0  0
    3.2042   -5.4917    0.0000 C   0  0  0  0  0  0  0  0  0  0  0  0
    3.2167    0.2458    0.0000 C   0  0  0  0  0  0  0  0  0  0  0  0
    2.5167    1.4958    0.0000 C   0  0  0  0  0  0  0  0  0  0  0  0
   -1.7833   -1.7875    0.0000 C   0  0  0  0  0  0  0  0  0  0  0  0
   -2.5000   -2.2000    0.0000 C   0  0  0  0  0  0  0  0  0  0  0  0
    3.9250   -5.9042    0.0000 C   0  0  0  0  0  0  0  0  0  0  0  0
    4.6375   -5.4917    0.0000 C   0  0  0  0  0  0  0  0  0  0  0  0
   -3.2125   -1.7875    0.0000 C   0  0  0  0  0  0  0  0  0  0  0  0
  2 16  1  0
  3  2  1  0
  4  3  1  0
  5  1  1  0
  6  2  1  0
  7  6  2  0
  8  5  1  0
  9  7  1  0
 10  1  1  0
 11  4  2  0
 12  8  1  0
 13 10  1  0
 14  1  2  0
 15  1  2  0
 16 29  1  0
 17 12  1  0
 18 11  1  0
 19  3  2  0
 20 13  1  0
 21  8  2  0
 22 12  2  0
 23  9  2  0
 24 17  1  0
 25 23  1  0
 26 22  1  0
 27 20  2  0
 28 20  1  0
 29 33  1  0
 30 18  1  0
 31  6  1  0
 32 27  1  0
 33 28  2  0
 34 10  2  0
 35 13  2  0
 36 30  1  0
 37 30  1  0
 38 31  1  0
 39 38  1  0
 40 41  2  0
 41 34  1  0
 42 39  1  0
 35 40  1  0
 29 32  2  0
 24 26  2  0
  4  9  1  0
 18 25  2  0
M  END
>  <From>  (1) 
www.bindingDB.org

>  <BindingDB Reactant_set_id>  (1) 
50467665

>  <Ligand InChI>  (1) 
InChI=1S/C33H33N3O4S2/c1-4-5-12-31-34-28-18-17-25(22(2)3)20-27(28)33(38)36(31)21-23-13-15-24(16-14-23)26-9-6-7-11-30(26)42(39,40)35-32(37)29-10-8-19-41-29/h6-11,13-20,22H,4-5,12,21H2,1-3H3,(H,35,37)

>  <Ligand InChI Key>  (1) 
YAXRMXZPNSGQST-UHFFFAOYSA-N

>  <BindingDB MonomerID>  (1) 
50282440

>  <BindingDB Ligand Name>  (1) 
4'-(2-Butyl-6-isopropyl-4-oxo-4H-quinazolin-3-ylmethyl)-biphenyl-2-sulfonic acid (thiophene-2-carbonyl)-amide::CHEMBL355443

>  <Target Name>  (1) 
Type-1 angiotensin II receptor

>  <Target Source Organism According to Curator or DataSource>  (1) 
Oryctolagus cuniculus

>  <Ki (nM)>  (1) 


>  <IC50 (nM)>  (1) 
 8

>  <Kd (nM)>  (1) 


>  <EC50 (nM)>  (1) 


>  <kon (M-1-s-1)>  (1) 


>  <koff (s-1)>  (1) 


>  <pH>  (1) 


>  <Temp C>  (1) 


>  <Curation/DataSource>  (1) 
ChEMBL

>  <Article DOI>  (1) 
10.1016/S0960-894X(01)81125-2

>  <BindingDB Entry DOI>  (1) 
10.7270/Q2J1033H

>  <PMID>  (1) 


>  <PubChem AID>  (1) 


>  <Patent Number>  (1) 


>  <Authors>  (1) 
Chakravarty, PK; Strelitz, RA; Chen, TB; Chang, RS; Lotti, VJ; Zingaro, GJ; Schorn, TW; Kivlighn, SD; Siegel, PK; Patchett, AA; Greenlee, WJ

>  <Institution>  (1) 
TBA

>  <Link to Ligand in BindingDB>  (1) 
http://www.bindingdb.org/bind/chemsearch/marvin/MolStructure.jsp?monomerid=50282440

>  <Link to Ligand-Target Pair in BindingDB>  (1) 
http://www.bindingdb.org/jsp/dbsearch/PrimarySearch_ki.jsp?energyterm=kJ/mole&tag=r21&monomerid=50282440&enzyme=Type-1+angiotensin+II+receptor&column=ki&startPg=0&Increment=50&submit=Search

>  <Ligand HET ID in PDB>  (1) 


>  <PDB ID(s) for Ligand-Target Complex>  (1) 


>  <PubChem CID of Ligand>  (1) 
44379350

>  <PubChem SID of Ligand>  (1) 
104124114

>  <ChEBI ID of Ligand>  (1) 


>  <ChEMBL ID of Ligand>  (1) 
CHEMBL355443

>  <DrugBank ID of Ligand>  (1) 


>  <IUPHAR_GRAC ID of Ligand>  (1) 


>  <KEGG ID of Ligand>  (1) 


>  <ZINC ID of Ligand>  (1) 
ZINC27884970

>  <Number of Protein Chains in Target (bigger than 1 implies a multichain complex)>  (1) 
1

>  <BindingDB Target Chain Sequence>  (1) 
MMLNSSTEDGIKRIQDDCPKAGRHNYIFVMIPTLYSIIFVVGIFGNSLAVIVIYFYMKLKTVASVFLLNLALADLCFLLTLPLWAVYTAMEYRWPFGNYLCKIASASVSFNLYASVFLLTCLSIDRYLAIVHPMKSRLRRTMLVAKVTCIIIWLLAGLASLPAIIHRNVFFIENTNITVCAFHYESQNSTLPIGLGLTKNILGFLFPFLIILTSYTLIWKALKKAYEIQKNKPRNDDIFKIIMAIVLFFFFSWVPHQIFTFLDVLIQLGVIHDCRIADIVDTAMPITICIAYFNNCLNPLFYGFLGKKFKKYFLQLLKYIPPKAKSHSNLSTKMSTLSYRPSDNVSSSSKKPVPCFEVE

>  <PDB ID(s) of Target Chain>  (1) 
6DO1,6OS0,6OS1,6OS2

>  <UniProt (SwissProt) Recommended Name of Target Chain>  (1) 
Type-1 angiotensin II receptor

>  <UniProt (SwissProt) Entry Name of Target Chain>  (1) 
AGTR1_RABIT

>  <UniProt (SwissProt) Primary ID of Target Chain>  (1) 
P34976

>  <UniProt (SwissProt) Secondary ID(s) of Target Chain>  (1) 


>  <UniProt (SwissProt) Alternative ID(s) of Target Chain>  (1) 


>  <UniProt (TrEMBL) Submitted Name of Target Chain>  (1) 


>  <UniProt (TrEMBL) Entry Name of Target Chain>  (1) 


>  <UniProt (TrEMBL) Primary ID of Target Chain>  (1) 


>  <UniProt (TrEMBL) Secondary ID(s) of Target Chain>  (1) 


>  <UniProt (TrEMBL) Alternative ID(s) of Target Chain>  (1) 


$$$$
