
     RDKit          2D

 43 47  0  0  0  0  0  0  0  0999 V2000
   14.8479  -17.3313    0.0000 C   0  0  0  0  0  0  0  0  0  0  0  0
   15.5182  -17.8127    0.0000 N   0  0  0  0  0  0  0  0  0  0  0  0
   15.5256  -18.6359    0.0000 C   0  0  0  0  0  0  0  0  0  0  0  0
   16.3102  -18.8867    0.0000 C   0  0  0  0  0  0  0  0  0  0  0  0
   16.7911  -18.2163    0.0000 C   0  0  0  0  0  0  0  0  0  0  0  0
   16.3021  -17.5519    0.0000 C   0  0  0  0  0  0  0  0  0  0  0  0
   15.1237  -19.3564    0.0000 C   0  0  0  0  0  0  0  0  0  0  0  0
   14.2988  -19.3686    0.0000 O   0  0  0  0  0  0  0  0  0  0  0  0
   15.5467  -20.0647    0.0000 O   0  0  0  0  0  0  0  0  0  0  0  0
   11.2777  -17.7541    0.0000 N   0  0  0  0  0  0  0  0  0  0  0  0
   11.2766  -18.5815    0.0000 C   0  0  0  0  0  0  0  0  0  0  0  0
   11.9914  -18.9944    0.0000 N   0  0  0  0  0  0  0  0  0  0  0  0
   12.7078  -18.5810    0.0000 C   0  0  0  0  0  0  0  0  0  0  0  0
   12.7050  -17.7505    0.0000 C   0  0  0  0  0  0  0  0  0  0  0  0
   11.9896  -17.3414    0.0000 C   0  0  0  0  0  0  0  0  0  0  0  0
   11.9912  -19.8194    0.0000 C   0  0  0  0  0  0  0  0  0  0  0  0
   12.7056  -20.2320    0.0000 C   0  0  0  0  0  0  0  0  0  0  0  0
   12.7012  -21.0552    0.0000 C   0  0  0  0  0  0  0  0  0  0  0  0
   13.4147  -21.4678    0.0000 C   0  0  0  0  0  0  0  0  0  0  0  0
   14.1303  -21.0555    0.0000 C   0  0  0  0  0  0  0  0  0  0  0  0
   14.1278  -20.2262    0.0000 C   0  0  0  0  0  0  0  0  0  0  0  0
   13.4137  -19.8173    0.0000 C   0  0  0  0  0  0  0  0  0  0  0  0
   14.8444  -21.4666    0.0000 C   0  0  0  0  0  0  0  0  0  0  0  0
   14.8441  -22.2924    0.0000 C   0  0  0  0  0  0  0  0  0  0  0  0
   15.5580  -22.7044    0.0000 C   0  0  0  0  0  0  0  0  0  0  0  0
   16.2730  -22.2911    0.0000 C   0  0  0  0  0  0  0  0  0  0  0  0
   16.2695  -21.4618    0.0000 C   0  0  0  0  0  0  0  0  0  0  0  0
   15.5548  -21.0539    0.0000 C   0  0  0  0  0  0  0  0  0  0  0  0
   14.1927  -22.8008    0.0000 C   0  0  0  0  0  0  0  0  0  0  0  0
   13.3999  -22.5726    0.0000 N   0  0  0  0  0  0  0  0  0  0  0  0
   12.9379  -23.2561    0.0000 N   0  0  0  0  0  0  0  0  0  0  0  0
   13.4452  -23.9067    0.0000 N   0  0  0  0  0  0  0  0  0  0  0  0
   14.2208  -23.6253    0.0000 N   0  0  0  0  0  0  0  0  0  0  0  0
   13.4230  -18.9924    0.0000 O   0  0  0  0  0  0  0  0  0  0  0  0
   10.5618  -18.9934    0.0000 C   0  0  0  0  0  0  0  0  0  0  0  0
    9.8476  -18.5804    0.0000 C   0  0  0  0  0  0  0  0  0  0  0  0
    9.1328  -18.9923    0.0000 C   0  0  0  0  0  0  0  0  0  0  0  0
    8.4187  -18.5792    0.0000 C   0  0  0  0  0  0  0  0  0  0  0  0
   11.9871  -16.5164    0.0000 C   0  0  0  0  0  0  0  0  0  0  0  0
   13.4179  -17.3353    0.0000 C   0  0  0  0  0  0  0  0  0  0  0  0
   14.1339  -17.7451    0.0000 C   0  0  0  0  0  0  0  0  0  0  0  0
   14.8437  -16.5049    0.0000 O   0  0  0  0  0  0  0  0  0  0  0  0
   16.3716  -20.0526    0.0000 C   0  0  0  0  0  0  0  0  0  0  0  0
 10 11  2  0
 21 22  2  0
 22 17  1  0
  5  6  1  0
 11 12  1  0
 23 24  1  0
  6  2  1  0
 24 25  2  0
 12 13  1  0
 25 26  1  0
  1  2  1  0
 26 27  2  0
 13 14  1  0
 27 28  1  0
 28 23  2  0
 20 23  1  0
 32 33  1  0
  3  7  1  1
 14 15  2  0
 30 31  1  0
 15 10  1  0
  3  2  1  0
 12 16  1  0
 29 30  2  0
 31 32  2  0
 33 29  1  0
 24 29  1  0
  7  8  2  0
 13 34  2  0
 16 17  1  0
 11 35  1  0
 35 36  1  0
 17 18  2  0
 36 37  1  0
  7  9  1  0
 37 38  1  0
 18 19  1  0
 15 39  1  0
  3  4  1  0
 14 40  1  0
 19 20  2  0
 40 41  1  0
 41  1  1  0
  4  5  1  0
  1 42  2  0
 20 21  1  0
  9 43  1  0
M  END
>  <From>  (1) 
www.bindingDB.org

>  <BindingDB Reactant_set_id>  (1) 
50718761

>  <Ligand InChI>  (1) 
InChI=1S/C32H37N7O4/c1-4-5-12-28-33-21(2)24(17-18-29(40)38-19-8-11-27(38)32(42)43-3)31(41)39(28)20-22-13-15-23(16-14-22)25-9-6-7-10-26(25)30-34-36-37-35-30/h6-7,9-10,13-16,27H,4-5,8,11-12,17-20H2,1-3H3,(H,34,35,36,37)/t27-/m0/s1

>  <Ligand InChI Key>  (1) 
QZGXBHDAIRJIOA-MHZLTWQESA-N

>  <BindingDB MonomerID>  (1) 
50364588

>  <BindingDB Ligand Name>  (1) 
CHEMBL1951137

>  <Target Name>  (1) 
Type-1 angiotensin II receptor

>  <Target Source Organism According to Curator or DataSource>  (1) 
Oryctolagus cuniculus

>  <Ki (nM)>  (1) 


>  <IC50 (nM)>  (1) 
 3.36

>  <Kd (nM)>  (1) 


>  <EC50 (nM)>  (1) 


>  <kon (M-1-s-1)>  (1) 


>  <koff (s-1)>  (1) 


>  <pH>  (1) 


>  <Temp C>  (1) 


>  <Curation/DataSource>  (1) 
ChEMBL

>  <Article DOI>  (1) 
10.1016/j.bmcl.2011.12.116

>  <BindingDB Entry DOI>  (1) 
10.7270/Q22R3S48

>  <PMID>  (1) 
22264484

>  <PubChem AID>  (1) 


>  <Patent Number>  (1) 


>  <Authors>  (1) 
Kim, TW; Yoo, BW; Lee, JK; Kim, JH; Lee, KT; Chi, YH; Lee, JY

>  <Institution>  (1) 
Kyung Hee University

>  <Link to Ligand in BindingDB>  (1) 
http://www.bindingdb.org/bind/chemsearch/marvin/MolStructure.jsp?monomerid=50364588

>  <Link to Ligand-Target Pair in BindingDB>  (1) 
http://www.bindingdb.org/jsp/dbsearch/PrimarySearch_ki.jsp?energyterm=kJ/mole&tag=r21&monomerid=50364588&enzyme=Type-1+angiotensin+II+receptor&column=ki&startPg=0&Increment=50&submit=Search

>  <Ligand HET ID in PDB>  (1) 


>  <PDB ID(s) for Ligand-Target Complex>  (1) 


>  <PubChem CID of Ligand>  (1) 
22942224

>  <PubChem SID of Ligand>  (1) 
136968650

>  <ChEBI ID of Ligand>  (1) 


>  <ChEMBL ID of Ligand>  (1) 
CHEMBL1951137

>  <DrugBank ID of Ligand>  (1) 


>  <IUPHAR_GRAC ID of Ligand>  (1) 


>  <KEGG ID of Ligand>  (1) 


>  <ZINC ID of Ligand>  (1) 
ZINC73292618

>  <Number of Protein Chains in Target (bigger than 1 implies a multichain complex)>  (1) 
1

>  <BindingDB Target Chain Sequence>  (1) 
MMLNSSTEDGIKRIQDDCPKAGRHNYIFVMIPTLYSIIFVVGIFGNSLAVIVIYFYMKLKTVASVFLLNLALADLCFLLTLPLWAVYTAMEYRWPFGNYLCKIASASVSFNLYASVFLLTCLSIDRYLAIVHPMKSRLRRTMLVAKVTCIIIWLLAGLASLPAIIHRNVFFIENTNITVCAFHYESQNSTLPIGLGLTKNILGFLFPFLIILTSYTLIWKALKKAYEIQKNKPRNDDIFKIIMAIVLFFFFSWVPHQIFTFLDVLIQLGVIHDCRIADIVDTAMPITICIAYFNNCLNPLFYGFLGKKFKKYFLQLLKYIPPKAKSHSNLSTKMSTLSYRPSDNVSSSSKKPVPCFEVE

>  <PDB ID(s) of Target Chain>  (1) 
6DO1,6OS0,6OS1,6OS2

>  <UniProt (SwissProt) Recommended Name of Target Chain>  (1) 
Type-1 angiotensin II receptor

>  <UniProt (SwissProt) Entry Name of Target Chain>  (1) 
AGTR1_RABIT

>  <UniProt (SwissProt) Primary ID of Target Chain>  (1) 
P34976

>  <UniProt (SwissProt) Secondary ID(s) of Target Chain>  (1) 


>  <UniProt (SwissProt) Alternative ID(s) of Target Chain>  (1) 


>  <UniProt (TrEMBL) Submitted Name of Target Chain>  (1) 


>  <UniProt (TrEMBL) Entry Name of Target Chain>  (1) 


>  <UniProt (TrEMBL) Primary ID of Target Chain>  (1) 


>  <UniProt (TrEMBL) Secondary ID(s) of Target Chain>  (1) 


>  <UniProt (TrEMBL) Alternative ID(s) of Target Chain>  (1) 


$$$$
