
     RDKit          2D

 33 36  0  0  0  0  0  0  0  0999 V2000
    4.8640   -1.3464    0.0000 N   0  0  0  0  0  0  0  0  0  0  0  0
    5.5229   -0.8594    0.0000 C   0  0  0  0  0  0  0  0  0  0  0  0
    4.4401   -0.0859    0.0000 N   0  0  0  0  0  0  0  0  0  0  0  0
    4.1937   -0.8651    0.0000 C   0  0  0  0  0  0  0  0  0  0  0  0
    5.2651   -0.0745    0.0000 C   0  0  0  0  0  0  0  0  0  0  0  0
    6.3307   -1.0198    0.0000 N   0  0  0  0  0  0  0  0  0  0  0  0
    2.0167   -4.6578    0.0000 C   0  0  0  0  0  0  0  0  0  0  0  0
    2.0167   -3.8328    0.0000 O   0  0  0  0  0  0  0  0  0  0  0  0
    5.8151    0.5328    0.0000 C   0  0  0  0  0  0  0  0  0  0  0  0
    1.2948   -5.0703    0.0000 C   0  0  0  0  0  0  0  0  0  0  0  0
    2.4807   -5.2823    0.0000 C   0  0  0  0  0  0  0  0  0  0  0  0
    2.7328   -3.4203    0.0000 C   0  0  0  0  0  0  0  0  0  0  0  0
    4.8698   -2.1714    0.0000 C   0  0  0  0  0  0  0  0  0  0  0  0
    3.4432   -3.8328    0.0000 C   0  0  0  0  0  0  0  0  0  0  0  0
    6.8807   -0.4125    0.0000 C   0  0  0  0  0  0  0  0  0  0  0  0
    6.6171    0.3723    0.0000 C   0  0  0  0  0  0  0  0  0  0  0  0
    4.1593   -3.4203    0.0000 C   0  0  0  0  0  0  0  0  0  0  0  0
    4.1593   -2.5839    0.0000 C   0  0  0  0  0  0  0  0  0  0  0  0
    3.4718   -5.3682    0.0000 O   0  0  0  0  0  0  0  0  0  0  0  0
    1.2948   -5.8838    0.0000 C   0  0  0  0  0  0  0  0  0  0  0  0
    2.7328   -2.5953    0.0000 C   0  0  0  0  0  0  0  0  0  0  0  0
    3.4260   -4.5088    0.0000 Cl  0  0  0  0  0  0  0  0  0  0  0  0
    2.6182   -6.1760    0.0000 O   0  0  0  0  0  0  0  0  0  0  0  0
    3.4432   -2.1714    0.0000 C   0  0  0  0  0  0  0  0  0  0  0  0
    3.4089   -1.1229    0.0000 C   0  0  0  0  0  0  0  0  0  0  0  0
    0.5901   -4.6463    0.0000 C   0  0  0  0  0  0  0  0  0  0  0  0
    5.5515    1.3176    0.0000 C   0  0  0  0  0  0  0  0  0  0  0  0
    7.6885   -0.5730    0.0000 C   0  0  0  0  0  0  0  0  0  0  0  0
    2.0167   -6.2963    0.0000 C   0  0  0  0  0  0  0  0  0  0  0  0
    0.5901   -6.2963    0.0000 C   0  0  0  0  0  0  0  0  0  0  0  0
    2.7901   -0.5844    0.0000 C   0  0  0  0  0  0  0  0  0  0  0  0
   -0.1317   -5.0588    0.0000 C   0  0  0  0  0  0  0  0  0  0  0  0
   -0.1317   -5.8838    0.0000 C   0  0  0  0  0  0  0  0  0  0  0  0
  2  1  1  0
  3  4  2  0
  4  1  1  0
  5  2  2  0
  6  2  1  0
  7  8  1  0
  8 12  1  0
  9  5  1  0
 10  7  1  0
 11  7  1  0
 12 21  2  0
 13  1  1  0
 14 17  2  0
 15  6  2  0
 16 15  1  0
 17 18  1  0
 18 13  1  0
 19 11  2  0
 20 10  2  0
 21 24  1  0
 22 14  1  0
 23 11  1  0
 24 18  2  0
 25  4  1  0
 26 10  1  0
 27  9  1  0
 28 15  1  0
 29 20  1  0
 30 20  1  0
 31 25  1  0
 32 26  2  0
 33 32  1  0
  5  3  1  0
 12 14  1  0
 16  9  2  0
 33 30  2  0
M  END
>  <From>  (1) 
www.bindingDB.org

>  <BindingDB Reactant_set_id>  (1) 
50003625

>  <Ligand InChI>  (1) 
InChI=1S/C26H26ClN3O3/c1-5-22-29-23-16(3)12-17(4)28-25(23)30(22)14-18-10-11-21(20(27)13-18)33-24(26(31)32)19-9-7-6-8-15(19)2/h6-13,24H,5,14H2,1-4H3,(H,31,32)

>  <Ligand InChI Key>  (1) 
APSWMQVSEDQAFN-UHFFFAOYSA-N

>  <BindingDB MonomerID>  (1) 
50284453

>  <BindingDB Ligand Name>  (1) 
CHEMBL15517::[2-Chloro-4-(2-ethyl-5,7-dimethyl-imidazo[4,5-b]pyridin-3-ylmethyl)-phenoxy]-o-tolyl-acetic acid

>  <Target Name>  (1) 
Type-1 angiotensin II receptor

>  <Target Source Organism According to Curator or DataSource>  (1) 
Oryctolagus cuniculus

>  <Ki (nM)>  (1) 


>  <IC50 (nM)>  (1) 
 3.4

>  <Kd (nM)>  (1) 


>  <EC50 (nM)>  (1) 


>  <kon (M-1-s-1)>  (1) 


>  <koff (s-1)>  (1) 


>  <pH>  (1) 


>  <Temp C>  (1) 


>  <Curation/DataSource>  (1) 
ChEMBL

>  <Article DOI>  (1) 
10.1016/0960-894X(95)00185-V

>  <BindingDB Entry DOI>  (1) 
10.7270/Q2J67GV9

>  <PMID>  (1) 


>  <PubChem AID>  (1) 


>  <Patent Number>  (1) 


>  <Authors>  (1) 
Walsh, TF; Fitch, KJ; Chang, RS; Faust, KA; Chen, TB; Kivlighn, SD; Zingaro, GJ; Lotti, VJ; Siegl, PK; Patchett, AA; Greenlee, WJ

>  <Institution>  (1) 
TBA

>  <Link to Ligand in BindingDB>  (1) 
http://www.bindingdb.org/bind/chemsearch/marvin/MolStructure.jsp?monomerid=50284453

>  <Link to Ligand-Target Pair in BindingDB>  (1) 
http://www.bindingdb.org/jsp/dbsearch/PrimarySearch_ki.jsp?energyterm=kJ/mole&tag=r21&monomerid=50284453&enzyme=Type-1+angiotensin+II+receptor&column=ki&startPg=0&Increment=50&submit=Search

>  <Ligand HET ID in PDB>  (1) 


>  <PDB ID(s) for Ligand-Target Complex>  (1) 


>  <PubChem CID of Ligand>  (1) 
15229605

>  <PubChem SID of Ligand>  (1) 
104126110

>  <ChEBI ID of Ligand>  (1) 


>  <ChEMBL ID of Ligand>  (1) 
CHEMBL15517

>  <DrugBank ID of Ligand>  (1) 


>  <IUPHAR_GRAC ID of Ligand>  (1) 


>  <KEGG ID of Ligand>  (1) 


>  <ZINC ID of Ligand>  (1) 
ZINC11687258

>  <Number of Protein Chains in Target (bigger than 1 implies a multichain complex)>  (1) 
1

>  <BindingDB Target Chain Sequence>  (1) 
MMLNSSTEDGIKRIQDDCPKAGRHNYIFVMIPTLYSIIFVVGIFGNSLAVIVIYFYMKLKTVASVFLLNLALADLCFLLTLPLWAVYTAMEYRWPFGNYLCKIASASVSFNLYASVFLLTCLSIDRYLAIVHPMKSRLRRTMLVAKVTCIIIWLLAGLASLPAIIHRNVFFIENTNITVCAFHYESQNSTLPIGLGLTKNILGFLFPFLIILTSYTLIWKALKKAYEIQKNKPRNDDIFKIIMAIVLFFFFSWVPHQIFTFLDVLIQLGVIHDCRIADIVDTAMPITICIAYFNNCLNPLFYGFLGKKFKKYFLQLLKYIPPKAKSHSNLSTKMSTLSYRPSDNVSSSSKKPVPCFEVE

>  <PDB ID(s) of Target Chain>  (1) 
6DO1,6OS0,6OS1,6OS2

>  <UniProt (SwissProt) Recommended Name of Target Chain>  (1) 
Type-1 angiotensin II receptor

>  <UniProt (SwissProt) Entry Name of Target Chain>  (1) 
AGTR1_RABIT

>  <UniProt (SwissProt) Primary ID of Target Chain>  (1) 
P34976

>  <UniProt (SwissProt) Secondary ID(s) of Target Chain>  (1) 


>  <UniProt (SwissProt) Alternative ID(s) of Target Chain>  (1) 


>  <UniProt (TrEMBL) Submitted Name of Target Chain>  (1) 


>  <UniProt (TrEMBL) Entry Name of Target Chain>  (1) 


>  <UniProt (TrEMBL) Primary ID of Target Chain>  (1) 


>  <UniProt (TrEMBL) Secondary ID(s) of Target Chain>  (1) 


>  <UniProt (TrEMBL) Alternative ID(s) of Target Chain>  (1) 


$$$$
