
     RDKit          2D

 40 44  0  0  0  0  0  0  0  0999 V2000
   17.0920   -4.2908    0.0000 N   0  0  0  0  0  0  0  0  0  0  0  0
   17.8039   -3.8833    0.0000 C   0  0  0  0  0  0  0  0  0  0  0  0
   18.5116   -4.2908    0.0000 C   0  0  0  0  0  0  0  0  0  0  0  0
   18.5116   -5.1099    0.0000 C   0  0  0  0  0  0  0  0  0  0  0  0
   17.8039   -5.5215    0.0000 N   0  0  0  0  0  0  0  0  0  0  0  0
   17.0920   -5.1099    0.0000 C   0  0  0  0  0  0  0  0  0  0  0  0
   16.3846   -5.5213    0.0000 C   0  0  0  0  0  0  0  0  0  0  0  0
   15.6772   -5.1099    0.0000 C   0  0  0  0  0  0  0  0  0  0  0  0
   14.9656   -5.5213    0.0000 C   0  0  0  0  0  0  0  0  0  0  0  0
   14.2582   -5.1099    0.0000 C   0  0  0  0  0  0  0  0  0  0  0  0
   17.8039   -6.3361    0.0000 C   0  0  0  0  0  0  0  0  0  0  0  0
   18.5113   -6.7475    0.0000 C   0  0  0  0  0  0  0  0  0  0  0  0
   18.5113   -7.5671    0.0000 C   0  0  0  0  0  0  0  0  0  0  0  0
   19.2138   -7.9716    0.0000 C   0  0  0  0  0  0  0  0  0  0  0  0
   19.9229   -7.5671    0.0000 C   0  0  0  0  0  0  0  0  0  0  0  0
   19.9229   -6.7475    0.0000 C   0  0  0  0  0  0  0  0  0  0  0  0
   19.2138   -6.3367    0.0000 C   0  0  0  0  0  0  0  0  0  0  0  0
   20.6344   -7.9744    0.0000 C   0  0  0  0  0  0  0  0  0  0  0  0
   20.6344   -8.7940    0.0000 C   0  0  0  0  0  0  0  0  0  0  0  0
   21.3411   -9.2026    0.0000 C   0  0  0  0  0  0  0  0  0  0  0  0
   22.0501   -8.7940    0.0000 C   0  0  0  0  0  0  0  0  0  0  0  0
   22.0501   -7.9744    0.0000 C   0  0  0  0  0  0  0  0  0  0  0  0
   21.3411   -7.5635    0.0000 C   0  0  0  0  0  0  0  0  0  0  0  0
   21.3411   -6.7448    0.0000 C   0  0  0  0  0  0  0  0  0  0  0  0
   20.6760   -6.2641    0.0000 N   0  0  0  0  0  0  0  0  0  0  0  0
   20.9299   -5.4866    0.0000 O   0  0  0  0  0  0  0  0  0  0  0  0
   21.7481   -5.4866    0.0000 C   0  0  0  0  0  0  0  0  0  0  0  0
   22.0020   -6.2641    0.0000 N   0  0  0  0  0  0  0  0  0  0  0  0
   22.1554   -4.7791    0.0000 O   0  0  0  0  0  0  0  0  0  0  0  0
   19.2191   -5.5213    0.0000 O   0  0  0  0  0  0  0  0  0  0  0  0
   19.2191   -3.8835    0.0000 C   0  0  0  0  0  0  0  0  0  0  0  0
   19.9265   -4.2908    0.0000 C   0  0  0  0  0  0  0  0  0  0  0  0
   20.6381   -3.8835    0.0000 N   0  0  0  0  0  0  0  0  0  0  0  0
   20.7231   -3.0676    0.0000 C   0  0  0  0  0  0  0  0  0  0  0  0
   21.5199   -2.8988    0.0000 C   0  0  0  0  0  0  0  0  0  0  0  0
   21.9311   -3.6099    0.0000 C   0  0  0  0  0  0  0  0  0  0  0  0
   21.3840   -4.2145    0.0000 C   0  0  0  0  0  0  0  0  0  0  0  0
   20.1438   -2.4924    0.0000 C   0  0  0  0  0  0  0  0  0  0  0  0
   19.9265   -5.1095    0.0000 S   0  0  0  0  0  0  0  0  0  0  0  0
   17.8039   -3.0646    0.0000 C   0  0  0  0  0  0  0  0  0  0  0  0
  1  2  1  0
  3  2  2  0
  4  3  1  0
  5  4  1  0
  6  5  1  0
  1  6  2  0
  6  7  1  0
  7  8  1  0
  8  9  1  0
  9 10  1  0
  5 11  1  0
 11 12  1  0
 12 13  2  0
 13 14  1  0
 14 15  2  0
 15 16  1  0
 16 17  2  0
 12 17  1  0
 15 18  1  0
 18 19  2  0
 19 20  1  0
 20 21  2  0
 21 22  1  0
 22 23  2  0
 18 23  1  0
 23 24  1  0
 25 24  2  0
 25 26  1  0
 26 27  1  0
 27 28  1  0
 28 24  1  0
 27 29  2  0
  4 30  2  0
  3 31  1  0
 31 32  1  0
 32 33  1  0
 34 33  1  0
 34 35  1  0
 35 36  1  0
 36 37  1  0
 37 33  1  0
 34 38  1  0
 32 39  2  0
  2 40  1  0
M  END
>  <From>  (1) 
www.bindingDB.org

>  <BindingDB Reactant_set_id>  (1) 
51139684

>  <Ligand InChI>  (1) 
InChI=1S/C31H35N5O3S/c1-4-5-12-27-32-21(3)26(18-28(40)35-17-8-9-20(35)2)30(37)36(27)19-22-13-15-23(16-14-22)24-10-6-7-11-25(24)29-33-31(38)39-34-29/h6-7,10-11,13-16,20H,4-5,8-9,12,17-19H2,1-3H3,(H,33,34,38)

>  <Ligand InChI Key>  (1) 
PCFKMILIHKVSEP-UHFFFAOYSA-N

>  <BindingDB MonomerID>  (1) 
50467130

>  <BindingDB Ligand Name>  (1) 
CHEMBL4291216

>  <Target Name>  (1) 
Type-1 angiotensin II receptor

>  <Target Source Organism According to Curator or DataSource>  (1) 
Homo sapiens

>  <Ki (nM)>  (1) 


>  <IC50 (nM)>  (1) 
 1.2

>  <Kd (nM)>  (1) 


>  <EC50 (nM)>  (1) 


>  <kon (M-1-s-1)>  (1) 


>  <koff (s-1)>  (1) 


>  <pH>  (1) 


>  <Temp C>  (1) 


>  <Curation/DataSource>  (1) 
ChEMBL

>  <Article DOI>  (1) 
10.1016/j.bmcl.2018.08.036

>  <BindingDB Entry DOI>  (1) 
10.7270/Q2X63QMZ

>  <PMID>  (1) 
30177375

>  <PubChem AID>  (1) 


>  <Patent Number>  (1) 


>  <Authors>  (1) 
Choung, W; Jung, HJ; Nam, EH; Yang, D; Yoo, B; Choi, H; Lee, BR; Park, M; Jang, SM; Lim, JS; Kim, KH; Chin, J; Jung, K; Lee, G; Kim, SH

>  <Institution>  (1) 
Boryung Pharmaceuticals Co. Ltd.

>  <Link to Ligand in BindingDB>  (1) 
http://www.bindingdb.org/bind/chemsearch/marvin/MolStructure.jsp?monomerid=50467130

>  <Link to Ligand-Target Pair in BindingDB>  (1) 
http://www.bindingdb.org/jsp/dbsearch/PrimarySearch_ki.jsp?energyterm=kJ/mole&tag=r21&monomerid=50467130&enzyme=Type-1+angiotensin+II+receptor&column=ki&startPg=0&Increment=50&submit=Search

>  <Ligand HET ID in PDB>  (1) 


>  <PDB ID(s) for Ligand-Target Complex>  (1) 


>  <PubChem CID of Ligand>  (1) 
142534141

>  <PubChem SID of Ligand>  (1) 
433934395

>  <ChEBI ID of Ligand>  (1) 


>  <ChEMBL ID of Ligand>  (1) 


>  <DrugBank ID of Ligand>  (1) 


>  <IUPHAR_GRAC ID of Ligand>  (1) 


>  <KEGG ID of Ligand>  (1) 


>  <ZINC ID of Ligand>  (1) 


>  <Number of Protein Chains in Target (bigger than 1 implies a multichain complex)>  (1) 
1

>  <BindingDB Target Chain Sequence>  (1) 
MILNSSTEDGIKRIQDDCPKAGRHNYIFVMIPTLYSIIFVVGIFGNSLVVIVIYFYMKLKTVASVFLLNLALADLCFLLTLPLWAVYTAMEYRWPFGNYLCKIASASVSFNLYASVFLLTCLSIDRYLAIVHPMKSRLRRTMLVAKVTCIIIWLLAGLASLPAIIHRNVFFIENTNITVCAFHYESQNSTLPIGLGLTKNILGFLFPFLIILTSYTLIWKALKKAYEIQKNKPRNDDIFKIIMAIVLFFFFSWIPHQIFTFLDVLIQLGIIRDCRIADIVDTAMPITICIAYFNNCLNPLFYGFLGKKFKRYFLQLLKYIPPKAKSHSNLSTKMSTLSYRPSDNVSSSTKKPAPCFEVE

>  <PDB ID(s) of Target Chain>  (1) 
6DO1,6OS0,6OS1,6OS2

>  <UniProt (SwissProt) Recommended Name of Target Chain>  (1) 
Type-1 angiotensin II receptor

>  <UniProt (SwissProt) Entry Name of Target Chain>  (1) 
AGTR1_HUMAN

>  <UniProt (SwissProt) Primary ID of Target Chain>  (1) 
P30556

>  <UniProt (SwissProt) Secondary ID(s) of Target Chain>  (1) 
Q13725 Q8TBK4

>  <UniProt (SwissProt) Alternative ID(s) of Target Chain>  (1) 


>  <UniProt (TrEMBL) Submitted Name of Target Chain>  (1) 


>  <UniProt (TrEMBL) Entry Name of Target Chain>  (1) 


>  <UniProt (TrEMBL) Primary ID of Target Chain>  (1) 


>  <UniProt (TrEMBL) Secondary ID(s) of Target Chain>  (1) 


>  <UniProt (TrEMBL) Alternative ID(s) of Target Chain>  (1) 


$$$$
