
     RDKit          2D

 35 38  0  0  0  0  0  0  0  0999 V2000
    2.3792   -0.3542    0.0000 C   0  0  0  0  0  0  0  0  0  0  0  0
    2.1292    0.4333    0.0000 N   0  0  0  0  0  0  0  0  0  0  0  0
    1.7125   -0.8417    0.0000 C   0  0  0  0  0  0  0  0  0  0  0  0
    1.3042    0.4333    0.0000 N   0  0  0  0  0  0  0  0  0  0  0  0
    5.2750   -2.0792    0.0000 C   0  0  0  0  0  0  0  0  0  0  0  0
    1.0500   -0.3542    0.0000 C   0  0  0  0  0  0  0  0  0  0  0  0
    4.8542   -0.8042    0.0000 N   0  0  0  0  0  0  0  0  0  0  0  0
    4.6042   -1.5917    0.0000 N   0  0  0  0  0  0  0  0  0  0  0  0
    5.6792   -0.8042    0.0000 N   0  0  0  0  0  0  0  0  0  0  0  0
    2.6125    1.0958    0.0000 C   0  0  0  0  0  0  0  0  0  0  0  0
    5.9375   -1.5917    0.0000 N   0  0  0  0  0  0  0  0  0  0  0  0
    2.2792    1.8500    0.0000 C   0  0  0  0  0  0  0  0  0  0  0  0
    3.1667   -0.6042    0.0000 C   0  0  0  0  0  0  0  0  0  0  0  0
    5.2792   -2.9000    0.0000 C   0  0  0  0  0  0  0  0  0  0  0  0
    4.5667   -3.3125    0.0000 C   0  0  0  0  0  0  0  0  0  0  0  0
    1.7125   -1.6667    0.0000 C   0  0  0  0  0  0  0  0  0  0  0  0
    3.8542   -2.9042    0.0000 C   0  0  0  0  0  0  0  0  0  0  0  0
    3.6417   -1.2917    0.0000 O   0  0  0  0  0  0  0  0  0  0  0  0
    3.0500    2.2833    0.0000 F   0  0  0  0  0  0  0  0  0  0  0  0
    1.8042    2.7833    0.0000 F   0  0  0  0  0  0  0  0  0  0  0  0
    1.4292    1.4083    0.0000 F   0  0  0  0  0  0  0  0  0  0  0  0
    3.8542   -2.0750    0.0000 C   0  0  0  0  0  0  0  0  0  0  0  0
    3.1375   -3.3167    0.0000 C   0  0  0  0  0  0  0  0  0  0  0  0
    2.4250   -2.0750    0.0000 C   0  0  0  0  0  0  0  0  0  0  0  0
    3.8625   -0.0417    0.0000 O   0  0  0  0  0  0  0  0  0  0  0  0
    3.1375   -1.6625    0.0000 C   0  0  0  0  0  0  0  0  0  0  0  0
    2.4250   -2.9042    0.0000 C   0  0  0  0  0  0  0  0  0  0  0  0
    0.2625   -0.6042    0.0000 C   0  0  0  0  0  0  0  0  0  0  0  0
    5.9917   -3.3042    0.0000 C   0  0  0  0  0  0  0  0  0  0  0  0
    4.5667   -4.1417    0.0000 C   0  0  0  0  0  0  0  0  0  0  0  0
   -0.3500   -0.0542    0.0000 C   0  0  0  0  0  0  0  0  0  0  0  0
   -1.1333   -0.3125    0.0000 C   0  0  0  0  0  0  0  0  0  0  0  0
    5.2792   -4.5500    0.0000 C   0  0  0  0  0  0  0  0  0  0  0  0
    5.9917   -4.1292    0.0000 C   0  0  0  0  0  0  0  0  0  0  0  0
   -1.7458    0.2458    0.0000 C   0  0  0  0  0  0  0  0  0  0  0  0
  2  1  1  0
  3  1  2  0
  4  2  1  0
  5 14  1  0
  6  3  1  0
  7  8  1  0
  8  5  1  0
  9 11  1  0
 10  2  1  0
 11  5  2  0
 12 10  1  0
 13  1  1  0
 14 15  1  0
 15 17  1  0
 16  3  1  0
 17 23  2  0
 18 13  2  0
 19 12  1  0
 20 12  1  0
 21 12  1  0
 22 26  2  0
 23 27  1  0
 24 16  1  0
 25 13  1  0
 26 24  1  0
 27 24  2  0
 28  6  1  0
 29 14  2  0
 30 15  2  0
 31 28  1  0
 32 31  1  0
 33 30  1  0
 34 33  2  0
 35 32  1  0
  4  6  2  0
 17 22  1  0
 34 29  1  0
  9  7  2  0
M  END
>  <From>  (1) 
www.bindingDB.org

>  <BindingDB Reactant_set_id>  (1) 
50061790

>  <Ligand InChI>  (1) 
InChI=1S/C24H23F3N6O2/c1-2-3-8-20-19(21(23(34)35)33(30-20)14-24(25,26)27)13-15-9-11-16(12-10-15)17-6-4-5-7-18(17)22-28-31-32-29-22/h4-7,9-12H,2-3,8,13-14H2,1H3,(H,34,35)(H,28,29,31,32)

>  <Ligand InChI Key>  (1) 
HNVFKNSAAWSQJP-UHFFFAOYSA-N

>  <BindingDB MonomerID>  (1) 
50042538

>  <BindingDB Ligand Name>  (1) 
5-Butyl-4-[2'-(1H-tetrazol-5-yl)-biphenyl-4-ylmethyl]-2-(2,2,2-trifluoro-ethyl)-2H-pyrazole-3-carboxylic acid::CHEMBL281386

>  <Target Name>  (1) 
Type-1 angiotensin II receptor

>  <Target Source Organism According to Curator or DataSource>  (1) 
Oryctolagus cuniculus

>  <Ki (nM)>  (1) 


>  <IC50 (nM)>  (1) 
 0.520000

>  <Kd (nM)>  (1) 


>  <EC50 (nM)>  (1) 


>  <kon (M-1-s-1)>  (1) 


>  <koff (s-1)>  (1) 


>  <pH>  (1) 


>  <Temp C>  (1) 


>  <Curation/DataSource>  (1) 
ChEMBL

>  <Article DOI>  (1) 
10.1021/jm00075a014

>  <BindingDB Entry DOI>  (1) 
10.7270/Q25Q4V5H

>  <PMID>  (1) 
8246227

>  <PubChem AID>  (1) 


>  <Patent Number>  (1) 


>  <Authors>  (1) 
Ashton, WT; Hutchins, SM; Greenlee, WJ; Doss, GA; Chang, RS; Lotti, VJ; Faust, KA; Chen, TB; Zingaro, GJ; Kivlighn, SD

>  <Institution>  (1) 
Merck Research Laboratories

>  <Link to Ligand in BindingDB>  (1) 
http://www.bindingdb.org/bind/chemsearch/marvin/MolStructure.jsp?monomerid=50042538

>  <Link to Ligand-Target Pair in BindingDB>  (1) 
http://www.bindingdb.org/jsp/dbsearch/PrimarySearch_ki.jsp?energyterm=kJ/mole&tag=r21&monomerid=50042538&enzyme=Type-1+angiotensin+II+receptor&column=ki&startPg=0&Increment=50&submit=Search

>  <Ligand HET ID in PDB>  (1) 


>  <PDB ID(s) for Ligand-Target Complex>  (1) 


>  <PubChem CID of Ligand>  (1) 
14971714

>  <PubChem SID of Ligand>  (1) 
103974134

>  <ChEBI ID of Ligand>  (1) 


>  <ChEMBL ID of Ligand>  (1) 
CHEMBL281386

>  <DrugBank ID of Ligand>  (1) 


>  <IUPHAR_GRAC ID of Ligand>  (1) 


>  <KEGG ID of Ligand>  (1) 


>  <ZINC ID of Ligand>  (1) 
ZINC13833918

>  <Number of Protein Chains in Target (bigger than 1 implies a multichain complex)>  (1) 
1

>  <BindingDB Target Chain Sequence>  (1) 
MMLNSSTEDGIKRIQDDCPKAGRHNYIFVMIPTLYSIIFVVGIFGNSLAVIVIYFYMKLKTVASVFLLNLALADLCFLLTLPLWAVYTAMEYRWPFGNYLCKIASASVSFNLYASVFLLTCLSIDRYLAIVHPMKSRLRRTMLVAKVTCIIIWLLAGLASLPAIIHRNVFFIENTNITVCAFHYESQNSTLPIGLGLTKNILGFLFPFLIILTSYTLIWKALKKAYEIQKNKPRNDDIFKIIMAIVLFFFFSWVPHQIFTFLDVLIQLGVIHDCRIADIVDTAMPITICIAYFNNCLNPLFYGFLGKKFKKYFLQLLKYIPPKAKSHSNLSTKMSTLSYRPSDNVSSSSKKPVPCFEVE

>  <PDB ID(s) of Target Chain>  (1) 
6DO1,6OS0,6OS1,6OS2

>  <UniProt (SwissProt) Recommended Name of Target Chain>  (1) 
Type-1 angiotensin II receptor

>  <UniProt (SwissProt) Entry Name of Target Chain>  (1) 
AGTR1_RABIT

>  <UniProt (SwissProt) Primary ID of Target Chain>  (1) 
P34976

>  <UniProt (SwissProt) Secondary ID(s) of Target Chain>  (1) 


>  <UniProt (SwissProt) Alternative ID(s) of Target Chain>  (1) 


>  <UniProt (TrEMBL) Submitted Name of Target Chain>  (1) 


>  <UniProt (TrEMBL) Entry Name of Target Chain>  (1) 


>  <UniProt (TrEMBL) Primary ID of Target Chain>  (1) 


>  <UniProt (TrEMBL) Secondary ID(s) of Target Chain>  (1) 


>  <UniProt (TrEMBL) Alternative ID(s) of Target Chain>  (1) 


$$$$
