
     RDKit          2D

 36 41  0  0  0  0  0  0  0  0999 V2000
    2.3602   -1.9134    0.0000 N   0  0  0  0  0  0  0  0  0  0  0  0
    2.4290   -0.5729    0.0000 N   0  0  0  0  0  0  0  0  0  0  0  0
    2.8758   -1.2718    0.0000 C   0  0  0  0  0  0  0  0  0  0  0  0
    1.5869   -1.6212    0.0000 C   0  0  0  0  0  0  0  0  0  0  0  0
    5.9177   -3.1508    0.0000 C   0  0  0  0  0  0  0  0  0  0  0  0
    5.4995   -1.8904    0.0000 N   0  0  0  0  0  0  0  0  0  0  0  0
    5.2475   -2.6696    0.0000 N   0  0  0  0  0  0  0  0  0  0  0  0
    6.3244   -1.8790    0.0000 N   0  0  0  0  0  0  0  0  0  0  0  0
    1.6327   -0.7963    0.0000 C   0  0  0  0  0  0  0  0  0  0  0  0
    6.5822   -2.6638    0.0000 N   0  0  0  0  0  0  0  0  0  0  0  0
    5.9291   -3.9757    0.0000 C   0  0  0  0  0  0  0  0  0  0  0  0
    0.8593   -1.9993    0.0000 C   0  0  0  0  0  0  0  0  0  0  0  0
    5.2131   -4.3882    0.0000 C   0  0  0  0  0  0  0  0  0  0  0  0
    0.1719   -1.5525    0.0000 C   0  0  0  0  0  0  0  0  0  0  0  0
    2.3602   -2.7383    0.0000 C   0  0  0  0  0  0  0  0  0  0  0  0
    4.5027   -3.9757    0.0000 C   0  0  0  0  0  0  0  0  0  0  0  0
   -0.5957   -2.7555    0.0000 N   0  0  0  0  0  0  0  0  0  0  0  0
   -0.5614   -1.9306    0.0000 C   0  0  0  0  0  0  0  0  0  0  0  0
    0.9338   -0.3495    0.0000 C   0  0  0  0  0  0  0  0  0  0  0  0
    0.2062   -0.7276    0.0000 C   0  0  0  0  0  0  0  0  0  0  0  0
    4.5027   -3.1508    0.0000 C   0  0  0  0  0  0  0  0  0  0  0  0
    3.7867   -4.3882    0.0000 C   0  0  0  0  0  0  0  0  0  0  0  0
    3.0763   -3.1508    0.0000 C   0  0  0  0  0  0  0  0  0  0  0  0
    3.7007   -1.3119    0.0000 C   0  0  0  0  0  0  0  0  0  0  0  0
    3.0763   -3.9757    0.0000 C   0  0  0  0  0  0  0  0  0  0  0  0
    3.7867   -2.7383    0.0000 C   0  0  0  0  0  0  0  0  0  0  0  0
    6.6395   -4.3824    0.0000 C   0  0  0  0  0  0  0  0  0  0  0  0
    5.2131   -5.2131    0.0000 C   0  0  0  0  0  0  0  0  0  0  0  0
   -1.3233   -3.1336    0.0000 C   0  0  0  0  0  0  0  0  0  0  0  0
   -1.2546   -1.4838    0.0000 C   0  0  0  0  0  0  0  0  0  0  0  0
    4.1476   -0.6187    0.0000 C   0  0  0  0  0  0  0  0  0  0  0  0
    5.9349   -5.6255    0.0000 C   0  0  0  0  0  0  0  0  0  0  0  0
    6.6509   -5.2131    0.0000 C   0  0  0  0  0  0  0  0  0  0  0  0
   -2.0279   -2.6868    0.0000 C   0  0  0  0  0  0  0  0  0  0  0  0
    4.9725   -0.6588    0.0000 C   0  0  0  0  0  0  0  0  0  0  0  0
   -1.9878   -1.8618    0.0000 C   0  0  0  0  0  0  0  0  0  0  0  0
  2  3  2  0
  3  1  1  0
  4  1  1  0
  5 11  1  0
  6  7  1  0
  7  5  1  0
  8 10  1  0
  9  4  2  0
 10  5  2  0
 11 13  1  0
 12  4  1  0
 13 16  1  0
 14 12  2  0
 15  1  1  0
 16 21  2  0
 17 18  2  0
 18 14  1  0
 19  9  1  0
 20 14  1  0
 21 26  1  0
 22 25  2  0
 23 15  1  0
 24  3  1  0
 25 23  1  0
 26 23  2  0
 27 11  2  0
 28 13  2  0
 29 17  1  0
 30 18  1  0
 31 24  1  0
 32 28  1  0
 33 32  2  0
 34 36  1  0
 35 31  1  0
 36 30  2  0
  9  2  1  0
 16 22  1  0
 20 19  2  0
 34 29  2  0
 27 33  1  0
  6  8  2  0
M  END
>  <From>  (1) 
www.bindingDB.org

>  <BindingDB Reactant_set_id>  (1) 
50069222

>  <Ligand InChI>  (1) 
InChI=1S/C29H25N7/c1-2-7-28-31-26-16-15-22(25-10-5-6-17-30-25)18-27(26)36(28)19-20-11-13-21(14-12-20)23-8-3-4-9-24(23)29-32-34-35-33-29/h3-6,8-18H,2,7,19H2,1H3,(H,32,33,34,35)

>  <Ligand InChI Key>  (1) 
PFYMSMASTADICJ-UHFFFAOYSA-N

>  <BindingDB MonomerID>  (1) 
50043255

>  <BindingDB Ligand Name>  (1) 
2-Propyl-6-pyridin-2-yl-1-[2'-(1H-tetrazol-5-yl)-biphenyl-4-ylmethyl]-1H-benzoimidazole::CHEMBL132282

>  <Target Name>  (1) 
Type-1 angiotensin II receptor B

>  <Target Source Organism According to Curator or DataSource>  (1) 
Rattus

>  <Ki (nM)>  (1) 


>  <IC50 (nM)>  (1) 
 11

>  <Kd (nM)>  (1) 


>  <EC50 (nM)>  (1) 


>  <kon (M-1-s-1)>  (1) 


>  <koff (s-1)>  (1) 


>  <pH>  (1) 


>  <Temp C>  (1) 


>  <Curation/DataSource>  (1) 
ChEMBL

>  <Article DOI>  (1) 
10.1021/jm00077a007

>  <BindingDB Entry DOI>  (1) 
10.7270/Q2V98746

>  <PMID>  (1) 
8258826

>  <PubChem AID>  (1) 


>  <Patent Number>  (1) 


>  <Authors>  (1) 
Ries, UJ; Mihm, G; Narr, B; Hasselbach, KM; Wittneben, H; Entzeroth, M; van Meel, JC; Wienen, W; Hauel, NH

>  <Institution>  (1) 
Dr. Karl Thomae GmbH

>  <Link to Ligand in BindingDB>  (1) 
http://www.bindingdb.org/bind/chemsearch/marvin/MolStructure.jsp?monomerid=50043255

>  <Link to Ligand-Target Pair in BindingDB>  (1) 
http://www.bindingdb.org/jsp/dbsearch/PrimarySearch_ki.jsp?energyterm=kJ/mole&tag=r21&monomerid=50043255&enzyme=Type-1+angiotensin+II+receptor+B&column=ki&startPg=0&Increment=50&submit=Search

>  <Ligand HET ID in PDB>  (1) 


>  <PDB ID(s) for Ligand-Target Complex>  (1) 


>  <PubChem CID of Ligand>  (1) 
11754522

>  <PubChem SID of Ligand>  (1) 
103974724

>  <ChEBI ID of Ligand>  (1) 


>  <ChEMBL ID of Ligand>  (1) 
CHEMBL132282

>  <DrugBank ID of Ligand>  (1) 


>  <IUPHAR_GRAC ID of Ligand>  (1) 


>  <KEGG ID of Ligand>  (1) 


>  <ZINC ID of Ligand>  (1) 
ZINC13732087

>  <Number of Protein Chains in Target (bigger than 1 implies a multichain complex)>  (1) 
1

>  <BindingDB Target Chain Sequence>  (1) 
MTLNSSTEDGIKRIQDDCPKAGRHNYIFVMIPTLYSIIFVVGIFGNSLVVIVIYFYMKLKTVASVFLLNLALADLCFLLTLPLWAVYTAMEYRWPFGNHLCKIASASVSFNLYASVFLLTCLSIDRYLAIVHPMKSRLRRTMLVAKVTCIIIWLMAGLASLPAVIYRNVYFIENTNITVCAFHYESQNSTLPIGLGLTKNILGFVFPFLIILTSYTLIWKALKKAYKIQKNTPRNDDIFRIIMAIVLFFFFSWVPHQIFTFLDVLIQLGIIRDCEIADIVDTAMPITICIAYFNNCLNPLFYGFLGKKFKKYFLQLLKYIPPTAKSHAGLSTKMSTLSYRPSDNMSSSAKKSASFFEVE

>  <PDB ID(s) of Target Chain>  (1) 


>  <UniProt (SwissProt) Recommended Name of Target Chain>  (1) 
Type-1 angiotensin II receptor B

>  <UniProt (SwissProt) Entry Name of Target Chain>  (1) 
AGTRB_RAT

>  <UniProt (SwissProt) Primary ID of Target Chain>  (1) 
P29089

>  <UniProt (SwissProt) Secondary ID(s) of Target Chain>  (1) 


>  <UniProt (SwissProt) Alternative ID(s) of Target Chain>  (1) 


>  <UniProt (TrEMBL) Submitted Name of Target Chain>  (1) 


>  <UniProt (TrEMBL) Entry Name of Target Chain>  (1) 


>  <UniProt (TrEMBL) Primary ID of Target Chain>  (1) 


>  <UniProt (TrEMBL) Secondary ID(s) of Target Chain>  (1) 


>  <UniProt (TrEMBL) Alternative ID(s) of Target Chain>  (1) 


$$$$
