
     RDKit          2D

 41 47  0  0  1  0  0  0  0  0999 V2000
    5.9290   -1.7704    0.0000 N   0  0  0  0  0  0  0  0  0  0  0  0
    5.2108   -2.1837    0.0000 C   0  0  0  0  0  0  0  0  0  0  0  0
    4.4968   -1.7578    0.0000 C   0  0  0  0  0  0  0  0  0  0  0  0
    5.9290   -0.9311    0.0000 C   0  0  0  0  0  0  0  0  0  0  0  0
    5.2108   -0.5178    0.0000 N   0  0  0  0  0  0  0  0  0  0  0  0
    8.0667   -5.4780    0.0000 C   0  0  0  0  0  0  0  0  0  0  0  0
    8.9602   -4.4760    0.0000 N   0  0  0  0  0  0  0  0  0  0  0  0
    8.1544   -4.6513    0.0000 N   0  0  0  0  0  0  0  0  0  0  0  0
    9.3736   -5.1899    0.0000 N   0  0  0  0  0  0  0  0  0  0  0  0
    4.4968   -0.9311    0.0000 C   0  0  0  0  0  0  0  0  0  0  0  0
    3.7828   -2.1837    0.0000 C   0  0  0  0  0  0  0  0  0  0  0  0
    8.8224   -5.8037    0.0000 N   0  0  0  0  0  0  0  0  0  0  0  0
    3.0688   -1.7704    0.0000 C   0  0  0  0  0  0  0  0  0  0  0  0
    2.3549   -2.9979    0.0000 N   0  0  0  0  0  0  0  0  0  0  0  0
    7.3527   -5.8914    0.0000 C   0  0  0  0  0  0  0  0  0  0  0  0
    2.3549   -2.1712    0.0000 C   0  0  0  0  0  0  0  0  0  0  0  0
    1.4655   -2.7850    0.0000 O   0  0  0  0  0  0  0  0  0  0  0  0
    6.6387   -5.4780    0.0000 C   0  0  0  0  0  0  0  0  0  0  0  0
    6.6429   -2.1837    0.0000 C   0  0  0  0  0  0  0  0  0  0  0  0
    1.6409   -1.7578    0.0000 C   0  0  0  0  0  0  0  0  0  0  0  0
    5.2108   -3.0104    0.0000 O   0  0  0  0  0  0  0  0  0  0  0  0
    6.6387   -4.6513    0.0000 C   0  0  0  0  0  0  0  0  0  0  0  0
    1.3403   -2.2839    0.0000 C   0  0  0  0  0  0  0  0  0  0  0  0
    3.0688   -0.9437    0.0000 C   0  0  0  0  0  0  0  0  0  0  0  0
    3.7828   -0.5178    0.0000 C   0  0  0  0  0  0  0  0  0  0  0  0
    7.3569   -4.2380    0.0000 C   0  0  0  0  0  0  0  0  0  0  0  0
    5.9248   -4.2380    0.0000 C   0  0  0  0  0  0  0  0  0  0  0  0
    6.6429   -3.0104    0.0000 C   0  0  0  0  0  0  0  0  0  0  0  0
    6.6513   -0.5303    0.0000 C   0  0  0  0  0  0  0  0  0  0  0  0
    5.9248   -3.4113    0.0000 C   0  0  0  0  0  0  0  0  0  0  0  0
    7.3569   -3.4113    0.0000 C   0  0  0  0  0  0  0  0  0  0  0  0
    1.6326   -3.4113    0.0000 C   0  0  0  0  0  0  0  0  0  0  0  0
    7.3527   -6.7181    0.0000 C   0  0  0  0  0  0  0  0  0  0  0  0
    5.9248   -5.8914    0.0000 C   0  0  0  0  0  0  0  0  0  0  0  0
    0.9269   -2.1712    0.0000 C   0  0  0  0  0  0  0  0  0  0  0  0
    0.9186   -2.9979    0.0000 C   0  0  0  0  0  0  0  0  0  0  0  0
    7.3652   -0.9437    0.0000 C   0  0  0  0  0  0  0  0  0  0  0  0
    8.0792   -0.5303    0.0000 C   0  0  0  0  0  0  0  0  0  0  0  0
    6.6387   -7.1314    0.0000 C   0  0  0  0  0  0  0  0  0  0  0  0
    5.9248   -6.7181    0.0000 C   0  0  0  0  0  0  0  0  0  0  0  0
    8.7932   -0.9437    0.0000 C   0  0  0  0  0  0  0  0  0  0  0  0
  2  1  1  0
  3  2  1  0
  4  1  1  0
  5  4  2  0
  6 15  1  0
  7  8  1  0
  8  6  1  0
  9 12  1  0
 10  5  1  0
 11  3  2  0
 12  6  2  0
 13 11  1  0
 16 14  1  0
 15 18  1  0
 16 13  1  1
 17 14  1  0
 18 22  1  0
 19  1  1  0
 16 20  1  0
 21  2  2  0
 22 26  2  0
 20 23  1  1
 24 25  1  0
 25 10  2  0
 26 31  1  0
 27 30  2  0
 28 19  1  0
 29  4  1  0
 30 28  1  0
 31 28  2  0
 32 14  1  0
 33 15  2  0
 34 18  2  0
 20 35  1  0
 36 35  1  0
 37 29  1  0
 38 37  1  0
 39 40  2  0
 40 34  1  0
 41 38  1  0
 10  3  1  0
 27 22  1  0
 24 13  2  0
 23 17  1  0
 32 36  1  0
 39 33  1  0
  9  7  2  0
M  END
>  <From>  (1) 
www.bindingDB.org

>  <BindingDB Reactant_set_id>  (1) 
50468496

>  <Ligand InChI>  (1) 
InChI=1S/C32H33N7O2/c1-2-3-10-29-33-28-16-15-23(30-24-7-6-17-39(30)41-20-24)18-27(28)32(40)38(29)19-21-11-13-22(14-12-21)25-8-4-5-9-26(25)31-34-36-37-35-31/h4-5,8-9,11-16,18,24,30H,2-3,6-7,10,17,19-20H2,1H3,(H,34,35,36,37)/t24-,30+/m0/s1

>  <Ligand InChI Key>  (1) 
RDMPKUGTZFCSQG-QABMSTFYSA-N

>  <BindingDB MonomerID>  (1) 
50282897

>  <BindingDB Ligand Name>  (1) 
2-Butyl-6-(5R,8S)-7-oxa-1-aza-bicyclo[3.2.1]oct-8-yl-3-[2'-(1H-tetrazol-5-yl)-biphenyl-4-ylmethyl]-3H-quinazolin-4-one::CHEMBL296173

>  <Target Name>  (1) 
Type-1 angiotensin II receptor

>  <Target Source Organism According to Curator or DataSource>  (1) 
Bos taurus

>  <Ki (nM)>  (1) 


>  <IC50 (nM)>  (1) 
 16

>  <Kd (nM)>  (1) 


>  <EC50 (nM)>  (1) 


>  <kon (M-1-s-1)>  (1) 


>  <koff (s-1)>  (1) 


>  <pH>  (1) 


>  <Temp C>  (1) 


>  <Curation/DataSource>  (1) 
ChEMBL

>  <Article DOI>  (1) 
10.1016/S0960-894X(01)80377-2

>  <BindingDB Entry DOI>  (1) 
10.7270/Q21V5DXH

>  <PMID>  (1) 


>  <PubChem AID>  (1) 


>  <Patent Number>  (1) 


>  <Authors>  (1) 
Levin, JI; Venkatesan, AM; Chan, PS; Bailey, TK; Vice, G; Coupet, J

>  <Institution>  (1) 
TBA

>  <Link to Ligand in BindingDB>  (1) 
http://www.bindingdb.org/bind/chemsearch/marvin/MolStructure.jsp?monomerid=50282897

>  <Link to Ligand-Target Pair in BindingDB>  (1) 
http://www.bindingdb.org/jsp/dbsearch/PrimarySearch_ki.jsp?energyterm=kJ/mole&tag=r21&monomerid=50282897&enzyme=Type-1+angiotensin+II+receptor&column=ki&startPg=0&Increment=50&submit=Search

>  <Ligand HET ID in PDB>  (1) 


>  <PDB ID(s) for Ligand-Target Complex>  (1) 


>  <PubChem CID of Ligand>  (1) 
44297143

>  <PubChem SID of Ligand>  (1) 
104124571

>  <ChEBI ID of Ligand>  (1) 


>  <ChEMBL ID of Ligand>  (1) 
CHEMBL296173

>  <DrugBank ID of Ligand>  (1) 


>  <IUPHAR_GRAC ID of Ligand>  (1) 


>  <KEGG ID of Ligand>  (1) 


>  <ZINC ID of Ligand>  (1) 
ZINC01538943

>  <Number of Protein Chains in Target (bigger than 1 implies a multichain complex)>  (1) 
1

>  <BindingDB Target Chain Sequence>  (1) 
MILNSSTEDGIKRIQDDCPKAGRHNYIFIMIPTLYSIIFVVGIFGNSLVVIVIYFYMKLKTVASVFLLNLALADLCFLLTLPLWAVYTAMEYRWPFGNYLCKIASASVSFNLYASVFLLTCLSIDRYLAIVHPMKSRLRRTMLVAKVTCIIIWLLAGLASLPTIIHRNVFFIENTNITVCAFHYESQNSTLPVGLGLTKNILGFLFPFLIILTSYTLIWKTLKKAYEIQKNKPRKDDIFKIILAIVLFFFFSWVPHQIFTFMDVLIQLGLIRDCKIEDIVDTAMPITICLAYFNNCLNPLFYGFLGKKFKKYFLQLLKYIPPKAKSHSNLSTKMSTLSYRPSENGNSSTKKPAPCIEVE

>  <PDB ID(s) of Target Chain>  (1) 


>  <UniProt (SwissProt) Recommended Name of Target Chain>  (1) 
Type-1 angiotensin II receptor

>  <UniProt (SwissProt) Entry Name of Target Chain>  (1) 
AGTR1_BOVIN

>  <UniProt (SwissProt) Primary ID of Target Chain>  (1) 
P25104

>  <UniProt (SwissProt) Secondary ID(s) of Target Chain>  (1) 


>  <UniProt (SwissProt) Alternative ID(s) of Target Chain>  (1) 


>  <UniProt (TrEMBL) Submitted Name of Target Chain>  (1) 


>  <UniProt (TrEMBL) Entry Name of Target Chain>  (1) 


>  <UniProt (TrEMBL) Primary ID of Target Chain>  (1) 


>  <UniProt (TrEMBL) Secondary ID(s) of Target Chain>  (1) 


>  <UniProt (TrEMBL) Alternative ID(s) of Target Chain>  (1) 


$$$$
