 
     RDKit          2D

 25 27  0  0  0  0  0  0  0  0999 V2000
   -3.2121    0.1234    0.0000 C   0  0  0  0  0  0  0  0  0  0  0  0
   -3.2241   -0.7014    0.0000 C   0  0  0  0  0  0  0  0  0  0  0  0
   -2.5156   -1.1244    0.0000 C   0  0  0  0  0  0  0  0  0  0  0  0
   -1.7951   -0.7223    0.0000 C   0  0  0  0  0  0  0  0  0  0  0  0
   -1.0143   -0.9887    0.0000 N   0  0  0  0  0  0  0  0  0  0  0  0
   -0.7708   -1.7770    0.0000 S   0  0  0  0  0  0  0  0  0  0  0  0
   -1.3316   -2.3821    0.0000 C   0  0  0  0  0  0  0  0  0  0  0  0
   -0.5196   -0.3283    0.0000 C   0  0  0  0  0  0  0  0  0  0  0  0
    0.3053   -0.3403    0.0000 C   0  0  0  0  0  0  0  0  0  0  0  0
   -0.9948    0.3460    0.0000 C   0  0  0  0  0  0  0  0  0  0  0  0
   -0.7283    1.1269    0.0000 C   0  0  0  0  0  0  0  0  0  0  0  0
    0.0810    1.2867    0.0000 O   0  0  0  0  0  0  0  0  0  0  0  0
   -1.2714    1.7480    0.0000 O   0  0  0  0  0  0  0  0  0  0  0  0
   -1.7831    0.1026    0.0000 C   0  0  0  0  0  0  0  0  0  0  0  0
   -2.4915    0.5254    0.0000 C   0  0  0  0  0  0  0  0  0  0  0  0
    0.0264   -1.5634    0.0000 O   0  0  0  0  0  0  0  0  0  0  0  0
   -0.3580   -2.4918    0.0000 O   0  0  0  0  0  0  0  0  0  0  0  0
    0.7283    0.3682    0.0000 O   0  0  0  0  0  0  0  0  0  0  0  0
    1.5536    0.3561    0.0000 C   0  0  0  0  0  0  0  0  0  0  0  0
    1.9766    1.0648    0.0000 C   0  0  0  0  0  0  0  0  0  0  0  0
    1.5746    1.7857    0.0000 C   0  0  0  0  0  0  0  0  0  0  0  0
    1.9970    2.4918    0.0000 C   0  0  0  0  0  0  0  0  0  0  0  0
    2.8225    2.4798    0.0000 C   0  0  0  0  0  0  0  0  0  0  0  0
    3.2241    1.7635    0.0000 C   0  0  0  0  0  0  0  0  0  0  0  0
    2.8054    1.0527    0.0000 C   0  0  0  0  0  0  0  0  0  0  0  0
  1  2  2  0
  2  3  1  0
  3  4  2  0
  4  5  1  0
  5  6  1  0
  6  7  1  0
  8  5  1  0
  8  9  1  0
 10  8  2  0
 10 11  1  0
 11 12  1  0
 11 13  2  0
 14 10  1  0
  4 14  1  0
 14 15  2  0
 15  1  1  0
  6 16  2  0
  6 17  2  0
  9 18  1  0
 18 19  1  0
 19 20  1  0
 21 20  2  0
 22 21  1  0
 23 22  2  0
 24 23  1  0
 25 24  2  0
 20 25  1  0
M  END
>  <From>  (1) 
www.bindingDB.org

>  <BindingDB Reactant_set_id>  (1) 
51523975

>  <Ligand InChI>  (1) 
InChI=1S/C18H17NO5S/c1-25(22,23)19-15-10-6-5-9-14(15)17(18(20)21)16(19)12-24-11-13-7-3-2-4-8-13/h2-10H,11-12H2,1H3,(H,20,21)

>  <Ligand InChI Key>  (1) 
QFZLNBDVDWTDPH-UHFFFAOYSA-N

>  <BindingDB MonomerID>  (1) 
50613293

>  <BindingDB Ligand Name>  (1) 
CHEMBL5277518

>  <Target Name>  (1) 
Type-1 angiotensin II receptor

>  <Target Source Organism According to Curator or DataSource>  (1) 
Homo sapiens

>  <Ki (nM)>  (1) 


>  <IC50 (nM)>  (1) 
 26

>  <Kd (nM)>  (1) 


>  <EC50 (nM)>  (1) 


>  <kon (M-1-s-1)>  (1) 


>  <koff (s-1)>  (1) 


>  <pH>  (1) 


>  <Temp C>  (1) 


>  <Curation/DataSource>  (1) 
ChEMBL

>  <Article DOI>  (1) 


>  <BindingDB Entry DOI>  (1) 
10.7270/Q2C82FJ3

>  <PMID>  (1) 
37236375

>  <PubChem AID>  (1) 


>  <Patent Number>  (1) 


>  <Authors>  (1) 
n/a

>  <Institution>  (1) 
n/a

>  <Link to Ligand in BindingDB>  (1) 
http://www.bindingdb.org/bind/chemsearch/marvin/MolStructure.jsp?monomerid=50613293

>  <Link to Ligand-Target Pair in BindingDB>  (1) 
http://www.bindingdb.org/jsp/dbsearch/PrimarySearch_ki.jsp?energyterm=kJ/mole&tag=r21&monomerid=50613293&enzyme=Type-1+angiotensin+II+receptor&column=ki&startPg=0&Increment=50&submit=Search

>  <Ligand HET ID in PDB>  (1) 


>  <PDB ID(s) for Ligand-Target Complex>  (1) 


>  <PubChem CID of Ligand>  (1) 
171354030

>  <PubChem SID of Ligand>  (1) 
494503041

>  <ChEBI ID of Ligand>  (1) 


>  <ChEMBL ID of Ligand>  (1) 


>  <DrugBank ID of Ligand>  (1) 


>  <IUPHAR_GRAC ID of Ligand>  (1) 


>  <KEGG ID of Ligand>  (1) 


>  <ZINC ID of Ligand>  (1) 


>  <Number of Protein Chains in Target (bigger than 1 implies a multichain complex)>  (1) 
1

>  <BindingDB Target Chain Sequence>  (1) 
MILNSSTEDGIKRIQDDCPKAGRHNYIFVMIPTLYSIIFVVGIFGNSLVVIVIYFYMKLKTVASVFLLNLALADLCFLLTLPLWAVYTAMEYRWPFGNYLCKIASASVSFNLYASVFLLTCLSIDRYLAIVHPMKSRLRRTMLVAKVTCIIIWLLAGLASLPAIIHRNVFFIENTNITVCAFHYESQNSTLPIGLGLTKNILGFLFPFLIILTSYTLIWKALKKAYEIQKNKPRNDDIFKIIMAIVLFFFFSWIPHQIFTFLDVLIQLGIIRDCRIADIVDTAMPITICIAYFNNCLNPLFYGFLGKKFKRYFLQLLKYIPPKAKSHSNLSTKMSTLSYRPSDNVSSSTKKPAPCFEVE

>  <PDB ID(s) of Target Chain>  (1) 
6DO1,6OS0,6OS1,6OS2

>  <UniProt (SwissProt) Recommended Name of Target Chain>  (1) 
Type-1 angiotensin II receptor

>  <UniProt (SwissProt) Entry Name of Target Chain>  (1) 
AGTR1_HUMAN

>  <UniProt (SwissProt) Primary ID of Target Chain>  (1) 
P30556

>  <UniProt (SwissProt) Secondary ID(s) of Target Chain>  (1) 
Q13725 Q8TBK4

>  <UniProt (SwissProt) Alternative ID(s) of Target Chain>  (1) 


>  <UniProt (TrEMBL) Submitted Name of Target Chain>  (1) 


>  <UniProt (TrEMBL) Entry Name of Target Chain>  (1) 


>  <UniProt (TrEMBL) Primary ID of Target Chain>  (1) 


>  <UniProt (TrEMBL) Secondary ID(s) of Target Chain>  (1) 


>  <UniProt (TrEMBL) Alternative ID(s) of Target Chain>  (1) 


$$$$
