
     RDKit          2D

 29 32  0  0  0  0  0  0  0  0999 V2000
   -2.6583    0.8333    0.0000 N   0  0  0  0  0  0  0  0  0  0  0  0
   -1.9083    0.4958    0.0000 C   0  0  0  0  0  0  0  0  0  0  0  0
   -1.7625    1.8250    0.0000 N   0  0  0  0  0  0  0  0  0  0  0  0
   -2.5708    1.6500    0.0000 C   0  0  0  0  0  0  0  0  0  0  0  0
   -1.3500    1.1125    0.0000 C   0  0  0  0  0  0  0  0  0  0  0  0
   -2.6500   -3.2917    0.0000 C   0  0  0  0  0  0  0  0  0  0  0  0
   -1.6458   -0.2875    0.0000 N   0  0  0  0  0  0  0  0  0  0  0  0
   -3.3625   -2.8792    0.0000 C   0  0  0  0  0  0  0  0  0  0  0  0
   -1.9375   -2.8792    0.0000 C   0  0  0  0  0  0  0  0  0  0  0  0
   -0.5458    0.9458    0.0000 C   0  0  0  0  0  0  0  0  0  0  0  0
   -3.3708    0.4208    0.0000 C   0  0  0  0  0  0  0  0  0  0  0  0
   -4.0833   -3.2917    0.0000 N   0  0  0  0  0  0  0  0  0  0  0  0
   -3.3708   -2.0542    0.0000 C   0  0  0  0  0  0  0  0  0  0  0  0
   -0.8375   -0.4542    0.0000 C   0  0  0  0  0  0  0  0  0  0  0  0
   -0.2875    0.1625    0.0000 C   0  0  0  0  0  0  0  0  0  0  0  0
   -1.9458   -2.0542    0.0000 O   0  0  0  0  0  0  0  0  0  0  0  0
   -2.6500   -1.6417    0.0000 C   0  0  0  0  0  0  0  0  0  0  0  0
   -4.0833   -1.6417    0.0000 C   0  0  0  0  0  0  0  0  0  0  0  0
   -3.3708   -0.4042    0.0000 C   0  0  0  0  0  0  0  0  0  0  0  0
   -1.2208   -3.2875    0.0000 O   0  0  0  0  0  0  0  0  0  0  0  0
   -3.1833    2.2083    0.0000 C   0  0  0  0  0  0  0  0  0  0  0  0
   -2.6500   -4.1125    0.0000 C   0  0  0  0  0  0  0  0  0  0  0  0
   -2.6500   -0.8167    0.0000 C   0  0  0  0  0  0  0  0  0  0  0  0
   -4.0833   -0.8167    0.0000 C   0  0  0  0  0  0  0  0  0  0  0  0
    0.0042    1.5583    0.0000 C   0  0  0  0  0  0  0  0  0  0  0  0
   -4.0833   -4.1167    0.0000 C   0  0  0  0  0  0  0  0  0  0  0  0
   -0.5833   -1.2417    0.0000 C   0  0  0  0  0  0  0  0  0  0  0  0
   -3.3708   -4.5292    0.0000 C   0  0  0  0  0  0  0  0  0  0  0  0
   -3.0125    3.0083    0.0000 C   0  0  0  0  0  0  0  0  0  0  0  0
  2  1  1  0
  3  4  2  0
  4  1  1  0
  5  2  2  0
  6  8  2  0
  7  2  1  0
  8 13  1  0
  9  6  1  0
 10  5  1  0
 11  1  1  0
 12  8  1  0
 13 18  2  0
 14  7  2  0
 15 14  1  0
 16  9  2  0
 17 23  2  0
 18 24  1  0
 19 11  1  0
 20  9  1  0
 21  4  1  0
 22  6  1  0
 23 19  1  0
 24 19  2  0
 25 10  1  0
 26 12  2  0
 27 14  1  0
 28 26  1  0
 29 21  1  0
  5  3  1  0
 13 17  1  0
 15 10  2  0
 22 28  2  0
M  END
>  <From>  (1) 
www.bindingDB.org

>  <BindingDB Reactant_set_id>  (1) 
50267962

>  <Ligand InChI>  (1) 
InChI=1S/C23H22N4O2/c1-4-19-26-20-14(2)12-15(3)25-22(20)27(19)13-16-7-9-17(10-8-16)21-18(23(28)29)6-5-11-24-21/h5-12H,4,13H2,1-3H3,(H,28,29)

>  <Ligand InChI Key>  (1) 
WNOVNRNMKSZCHV-UHFFFAOYSA-N

>  <BindingDB MonomerID>  (1) 
50145975

>  <BindingDB Ligand Name>  (1) 
2-[4-(2-Ethyl-5,7-dimethyl-imidazo[4,5-b]pyridin-3-ylmethyl)-phenyl]-nicotinic acid::CHEMBL88081

>  <Target Name>  (1) 
Type-1 angiotensin II receptor B

>  <Target Source Organism According to Curator or DataSource>  (1) 
Rattus

>  <Ki (nM)>  (1) 


>  <IC50 (nM)>  (1) 
 819.0

>  <Kd (nM)>  (1) 


>  <EC50 (nM)>  (1) 


>  <kon (M-1-s-1)>  (1) 


>  <koff (s-1)>  (1) 


>  <pH>  (1) 


>  <Temp C>  (1) 


>  <Curation/DataSource>  (1) 
ChEMBL

>  <Article DOI>  (1) 
10.1021/jm031100t

>  <BindingDB Entry DOI>  (1) 
10.7270/Q25X28DX

>  <PMID>  (1) 
15115399

>  <PubChem AID>  (1) 


>  <Patent Number>  (1) 


>  <Authors>  (1) 
Cappelli, A; Pericot Mohr Gl, G; Gallelli, A; Rizzo, M; Anzini, M; Vomero, S; Mennuni, L; Ferrari, F; Makovec, F; Menziani, MC; De Benedetti, PG; Giorgi, G

>  <Institution>  (1) 
Universit&#224; di Siena

>  <Link to Ligand in BindingDB>  (1) 
http://www.bindingdb.org/bind/chemsearch/marvin/MolStructure.jsp?monomerid=50145975

>  <Link to Ligand-Target Pair in BindingDB>  (1) 
http://www.bindingdb.org/jsp/dbsearch/PrimarySearch_ki.jsp?energyterm=kJ/mole&tag=r21&monomerid=50145975&enzyme=Type-1+angiotensin+II+receptor+B&column=ki&startPg=0&Increment=50&submit=Search

>  <Ligand HET ID in PDB>  (1) 


>  <PDB ID(s) for Ligand-Target Complex>  (1) 


>  <PubChem CID of Ligand>  (1) 
44320733

>  <PubChem SID of Ligand>  (1) 
104034661

>  <ChEBI ID of Ligand>  (1) 


>  <ChEMBL ID of Ligand>  (1) 
CHEMBL88081

>  <DrugBank ID of Ligand>  (1) 


>  <IUPHAR_GRAC ID of Ligand>  (1) 


>  <KEGG ID of Ligand>  (1) 


>  <ZINC ID of Ligand>  (1) 
ZINC13560845

>  <Number of Protein Chains in Target (bigger than 1 implies a multichain complex)>  (1) 
1

>  <BindingDB Target Chain Sequence>  (1) 
MTLNSSTEDGIKRIQDDCPKAGRHNYIFVMIPTLYSIIFVVGIFGNSLVVIVIYFYMKLKTVASVFLLNLALADLCFLLTLPLWAVYTAMEYRWPFGNHLCKIASASVSFNLYASVFLLTCLSIDRYLAIVHPMKSRLRRTMLVAKVTCIIIWLMAGLASLPAVIYRNVYFIENTNITVCAFHYESQNSTLPIGLGLTKNILGFVFPFLIILTSYTLIWKALKKAYKIQKNTPRNDDIFRIIMAIVLFFFFSWVPHQIFTFLDVLIQLGIIRDCEIADIVDTAMPITICIAYFNNCLNPLFYGFLGKKFKKYFLQLLKYIPPTAKSHAGLSTKMSTLSYRPSDNMSSSAKKSASFFEVE

>  <PDB ID(s) of Target Chain>  (1) 


>  <UniProt (SwissProt) Recommended Name of Target Chain>  (1) 
Type-1 angiotensin II receptor B

>  <UniProt (SwissProt) Entry Name of Target Chain>  (1) 
AGTRB_RAT

>  <UniProt (SwissProt) Primary ID of Target Chain>  (1) 
P29089

>  <UniProt (SwissProt) Secondary ID(s) of Target Chain>  (1) 


>  <UniProt (SwissProt) Alternative ID(s) of Target Chain>  (1) 


>  <UniProt (TrEMBL) Submitted Name of Target Chain>  (1) 


>  <UniProt (TrEMBL) Entry Name of Target Chain>  (1) 


>  <UniProt (TrEMBL) Primary ID of Target Chain>  (1) 


>  <UniProt (TrEMBL) Secondary ID(s) of Target Chain>  (1) 


>  <UniProt (TrEMBL) Alternative ID(s) of Target Chain>  (1) 


$$$$
