
     RDKit          2D

 51 55  0  0  0  0  0  0  0  0999 V2000
    4.2918  -15.1978    0.0000 C   0  0  0  0  0  0  0  0  0  0  0  0
    5.1150  -15.1990    0.0000 C   0  0  0  0  0  0  0  0  0  0  0  0
    5.5258  -14.4878    0.0000 C   0  0  0  0  0  0  0  0  0  0  0  0
    5.1145  -13.7749    0.0000 C   0  0  0  0  0  0  0  0  0  0  0  0
    4.2882  -13.7777    0.0000 C   0  0  0  0  0  0  0  0  0  0  0  0
    3.8811  -14.4896    0.0000 C   0  0  0  0  0  0  0  0  0  0  0  0
    3.8795  -15.9124    0.0000 N   0  0  0  0  0  0  0  0  0  0  0  0
    3.0544  -15.9986    0.0000 N   0  0  0  0  0  0  0  0  0  0  0  0
    2.8831  -16.8057    0.0000 C   0  0  0  0  0  0  0  0  0  0  0  0
    3.5978  -17.2180    0.0000 N   0  0  0  0  0  0  0  0  0  0  0  0
    4.2106  -16.6658    0.0000 C   0  0  0  0  0  0  0  0  0  0  0  0
    5.0173  -16.8390    0.0000 O   0  0  0  0  0  0  0  0  0  0  0  0
    3.5918  -18.0424    0.0000 C   0  0  0  0  0  0  0  0  0  0  0  0
    4.3033  -18.4600    0.0000 C   0  0  0  0  0  0  0  0  0  0  0  0
    4.2955  -19.2851    0.0000 C   0  0  0  0  0  0  0  0  0  0  0  0
    5.0062  -19.7027    0.0000 C   0  0  0  0  0  0  0  0  0  0  0  0
    5.7247  -19.2954    0.0000 C   0  0  0  0  0  0  0  0  0  0  0  0
    5.7280  -18.4661    0.0000 C   0  0  0  0  0  0  0  0  0  0  0  0
    5.0168  -18.0522    0.0000 C   0  0  0  0  0  0  0  0  0  0  0  0
    6.4364  -19.7091    0.0000 C   0  0  0  0  0  0  0  0  0  0  0  0
    6.4301  -20.5352    0.0000 C   0  0  0  0  0  0  0  0  0  0  0  0
    7.1413  -20.9518    0.0000 C   0  0  0  0  0  0  0  0  0  0  0  0
    7.8592  -20.5435    0.0000 C   0  0  0  0  0  0  0  0  0  0  0  0
    7.8615  -19.7143    0.0000 C   0  0  0  0  0  0  0  0  0  0  0  0
    7.1496  -19.3013    0.0000 C   0  0  0  0  0  0  0  0  0  0  0  0
    7.1523  -18.4763    0.0000 S   0  0  0  0  0  0  0  0  0  0  0  0
    7.8681  -18.0660    0.0000 N   0  0  0  0  0  0  0  0  0  0  0  0
    6.7336  -17.7590    0.0000 O   0  0  0  0  0  0  0  0  0  0  0  0
    6.3252  -18.4757    0.0000 O   0  0  0  0  0  0  0  0  0  0  0  0
    8.5813  -18.4808    0.0000 C   0  0  0  0  0  0  0  0  0  0  0  0
    8.5786  -19.3059    0.0000 O   0  0  0  0  0  0  0  0  0  0  0  0
    2.1295  -17.1414    0.0000 C   0  0  0  0  0  0  0  0  0  0  0  0
    1.4619  -16.6567    0.0000 C   0  0  0  0  0  0  0  0  0  0  0  0
    3.5776  -19.6915    0.0000 F   0  0  0  0  0  0  0  0  0  0  0  0
    6.3509  -14.4880    0.0000 N   0  0  0  0  0  0  0  0  0  0  0  0
    6.7636  -13.7736    0.0000 C   0  0  0  0  0  0  0  0  0  0  0  0
    7.5886  -13.7738    0.0000 C   0  0  0  0  0  0  0  0  0  0  0  0
    7.9953  -13.0606    0.0000 C   0  0  0  0  0  0  0  0  0  0  0  0
    8.8203  -13.0563    0.0000 C   0  0  0  0  0  0  0  0  0  0  0  0
    9.2290  -12.3396    0.0000 C   0  0  0  0  0  0  0  0  0  0  0  0
    3.0560  -14.4920    0.0000 Cl  0  0  0  0  0  0  0  0  0  0  0  0
    6.3513  -13.0590    0.0000 O   0  0  0  0  0  0  0  0  0  0  0  0
    9.2971  -18.0705    0.0000 C   0  0  0  0  0  0  0  0  0  0  0  0
   10.0066  -18.4874    0.0000 C   0  0  0  0  0  0  0  0  0  0  0  0
   10.7219  -18.0779    0.0000 C   0  0  0  0  0  0  0  0  0  0  0  0
   10.7250  -17.2520    0.0000 C   0  0  0  0  0  0  0  0  0  0  0  0
   10.0068  -16.8373    0.0000 C   0  0  0  0  0  0  0  0  0  0  0  0
    9.2944  -17.2493    0.0000 C   0  0  0  0  0  0  0  0  0  0  0  0
   10.0020  -19.3124    0.0000 Cl  0  0  0  0  0  0  0  0  0  0  0  0
   10.0065  -16.0123    0.0000 Cl  0  0  0  0  0  0  0  0  0  0  0  0
    0.7083  -16.9925    0.0000 C   0  0  0  0  0  0  0  0  0  0  0  0
  1  2  2  0
  2  3  1  0
  3  4  2  0
  4  5  1  0
  5  6  2  0
  6  1  1  0
  1  7  1  0
  7  8  1  0
  8  9  2  0
  9 10  1  0
 10 11  1  0
 11  7  1  0
 11 12  2  0
 10 13  1  0
 13 14  1  0
 14 15  2  0
 15 16  1  0
 16 17  2  0
 17 18  1  0
 18 19  2  0
 19 14  1  0
 20 21  2  0
 21 22  1  0
 22 23  2  0
 23 24  1  0
 24 25  2  0
 25 20  1  0
 17 20  1  0
 25 26  1  0
 26 27  1  0
 26 28  2  0
 26 29  2  0
 27 30  1  0
 30 31  2  0
  9 32  1  0
 32 33  1  0
 15 34  1  0
  3 35  1  0
 35 36  1  0
 36 37  1  0
 38 37  1  0
 38 39  1  0
 39 40  1  0
  6 41  1  0
 36 42  2  0
 30 43  1  0
 43 44  2  0
 44 45  1  0
 45 46  2  0
 46 47  1  0
 47 48  2  0
 48 43  1  0
 44 49  1  0
 47 50  1  0
 33 51  1  0
M  END
>  <From>  (1) 
www.bindingDB.org

>  <BindingDB Reactant_set_id>  (1) 
51183737

>  <Ligand InChI>  (1) 
InChI=1S/C36H33Cl3FN5O5S/c1-3-5-11-34(46)41-25-15-17-29(39)31(20-25)45-36(48)44(33(42-45)8-4-2)21-23-13-12-22(18-30(23)40)26-9-6-7-10-32(26)51(49,50)43-35(47)27-19-24(37)14-16-28(27)38/h6-7,9-10,12-20H,3-5,8,11,21H2,1-2H3,(H,41,46)(H,43,47)

>  <Ligand InChI Key>  (1) 
LFCPEBOSWGHACP-UHFFFAOYSA-N

>  <BindingDB MonomerID>  (1) 
50486804

>  <BindingDB Ligand Name>  (1) 
CHEMBL2236976

>  <Target Name>  (1) 
Type-1 angiotensin II receptor

>  <Target Source Organism According to Curator or DataSource>  (1) 
Oryctolagus cuniculus

>  <Ki (nM)>  (1) 


>  <IC50 (nM)>  (1) 
 0.190108

>  <Kd (nM)>  (1) 


>  <EC50 (nM)>  (1) 


>  <kon (M-1-s-1)>  (1) 


>  <koff (s-1)>  (1) 


>  <pH>  (1) 


>  <Temp C>  (1) 


>  <Curation/DataSource>  (1) 
ChEMBL

>  <Article DOI>  (1) 
10.1007/s00044-011-9815-x

>  <BindingDB Entry DOI>  (1) 
10.7270/Q2VT1W0S

>  <PMID>  (1) 


>  <PubChem AID>  (1) 


>  <Patent Number>  (1) 


>  <Authors>  (1) 
n/a

>  <Institution>  (1) 
n/a

>  <Link to Ligand in BindingDB>  (1) 
http://www.bindingdb.org/bind/chemsearch/marvin/MolStructure.jsp?monomerid=50486804

>  <Link to Ligand-Target Pair in BindingDB>  (1) 
http://www.bindingdb.org/jsp/dbsearch/PrimarySearch_ki.jsp?energyterm=kJ/mole&tag=r21&monomerid=50486804&enzyme=Type-1+angiotensin+II+receptor&column=ki&startPg=0&Increment=50&submit=Search

>  <Ligand HET ID in PDB>  (1) 


>  <PDB ID(s) for Ligand-Target Complex>  (1) 


>  <PubChem CID of Ligand>  (1) 
76333473

>  <PubChem SID of Ligand>  (1) 
433954069

>  <ChEBI ID of Ligand>  (1) 


>  <ChEMBL ID of Ligand>  (1) 


>  <DrugBank ID of Ligand>  (1) 


>  <IUPHAR_GRAC ID of Ligand>  (1) 


>  <KEGG ID of Ligand>  (1) 


>  <ZINC ID of Ligand>  (1) 


>  <Number of Protein Chains in Target (bigger than 1 implies a multichain complex)>  (1) 
1

>  <BindingDB Target Chain Sequence>  (1) 
MMLNSSTEDGIKRIQDDCPKAGRHNYIFVMIPTLYSIIFVVGIFGNSLAVIVIYFYMKLKTVASVFLLNLALADLCFLLTLPLWAVYTAMEYRWPFGNYLCKIASASVSFNLYASVFLLTCLSIDRYLAIVHPMKSRLRRTMLVAKVTCIIIWLLAGLASLPAIIHRNVFFIENTNITVCAFHYESQNSTLPIGLGLTKNILGFLFPFLIILTSYTLIWKALKKAYEIQKNKPRNDDIFKIIMAIVLFFFFSWVPHQIFTFLDVLIQLGVIHDCRIADIVDTAMPITICIAYFNNCLNPLFYGFLGKKFKKYFLQLLKYIPPKAKSHSNLSTKMSTLSYRPSDNVSSSSKKPVPCFEVE

>  <PDB ID(s) of Target Chain>  (1) 
6DO1,6OS0,6OS1,6OS2

>  <UniProt (SwissProt) Recommended Name of Target Chain>  (1) 
Type-1 angiotensin II receptor

>  <UniProt (SwissProt) Entry Name of Target Chain>  (1) 
AGTR1_RABIT

>  <UniProt (SwissProt) Primary ID of Target Chain>  (1) 
P34976

>  <UniProt (SwissProt) Secondary ID(s) of Target Chain>  (1) 


>  <UniProt (SwissProt) Alternative ID(s) of Target Chain>  (1) 


>  <UniProt (TrEMBL) Submitted Name of Target Chain>  (1) 


>  <UniProt (TrEMBL) Entry Name of Target Chain>  (1) 


>  <UniProt (TrEMBL) Primary ID of Target Chain>  (1) 


>  <UniProt (TrEMBL) Secondary ID(s) of Target Chain>  (1) 


>  <UniProt (TrEMBL) Alternative ID(s) of Target Chain>  (1) 


$$$$
