
     RDKit          2D

 47 51  0  0  0  0  0  0  0  0999 V2000
    1.1041    0.0508    0.0000 N   0  0  0  0  0  0  0  0  0  0  0  0
    1.5102    1.3283    0.0000 N   0  0  0  0  0  0  0  0  0  0  0  0
    4.6618   -1.1591    0.0000 S   0  0  0  0  0  0  0  0  0  0  0  0
    1.7683    0.5414    0.0000 C   0  0  0  0  0  0  0  0  0  0  0  0
    0.6853    1.3198    0.0000 N   0  0  0  0  0  0  0  0  0  0  0  0
    0.4358    0.5414    0.0000 C   0  0  0  0  0  0  0  0  0  0  0  0
    4.6618   -0.3342    0.0000 N   0  0  0  0  0  0  0  0  0  0  0  0
    5.3725    0.0761    0.0000 C   0  0  0  0  0  0  0  0  0  0  0  0
    1.6541    2.7369    0.0000 C   0  0  0  0  0  0  0  0  0  0  0  0
    1.9840    1.9882    0.0000 C   0  0  0  0  0  0  0  0  0  0  0  0
    0.8292    2.8174    0.0000 C   0  0  0  0  0  0  0  0  0  0  0  0
    1.1041   -0.7657    0.0000 C   0  0  0  0  0  0  0  0  0  0  0  0
    4.6745   -1.9840    0.0000 C   0  0  0  0  0  0  0  0  0  0  0  0
    6.0916   -0.3300    0.0000 C   0  0  0  0  0  0  0  0  0  0  0  0
    1.8190   -1.1802    0.0000 C   0  0  0  0  0  0  0  0  0  0  0  0
    3.9638   -2.3986    0.0000 C   0  0  0  0  0  0  0  0  0  0  0  0
    3.2531   -1.9967    0.0000 C   0  0  0  0  0  0  0  0  0  0  0  0
    1.8190   -2.0051    0.0000 C   0  0  0  0  0  0  0  0  0  0  0  0
    5.4951   -1.1591    0.0000 O   0  0  0  0  0  0  0  0  0  0  0  0
    3.8369   -1.1718    0.0000 O   0  0  0  0  0  0  0  0  0  0  0  0
    2.5424   -2.4113    0.0000 C   0  0  0  0  0  0  0  0  0  0  0  0
    2.5551    0.2919    0.0000 O   0  0  0  0  0  0  0  0  0  0  0  0
    6.7938    0.0846    0.0000 C   0  0  0  0  0  0  0  0  0  0  0  0
    5.3682    0.9010    0.0000 O   0  0  0  0  0  0  0  0  0  0  0  0
    2.5297   -0.7614    0.0000 C   0  0  0  0  0  0  0  0  0  0  0  0
    3.2404   -1.1676    0.0000 C   0  0  0  0  0  0  0  0  0  0  0  0
    0.7911    1.9925    0.0000 F   0  0  0  0  0  0  0  0  0  0  0  0
    0.0043    2.8174    0.0000 F   0  0  0  0  0  0  0  0  0  0  0  0
    0.8672    3.6423    0.0000 F   0  0  0  0  0  0  0  0  0  0  0  0
    1.0957   -2.4282    0.0000 F   0  0  0  0  0  0  0  0  0  0  0  0
    6.7938    0.9095    0.0000 Cl  0  0  0  0  0  0  0  0  0  0  0  0
   -0.3511    0.2792    0.0000 C   0  0  0  0  0  0  0  0  0  0  0  0
    2.1321    3.4096    0.0000 C   0  0  0  0  0  0  0  0  0  0  0  0
    6.0959   -1.1549    0.0000 C   0  0  0  0  0  0  0  0  0  0  0  0
    2.8174    1.9120    0.0000 C   0  0  0  0  0  0  0  0  0  0  0  0
    5.3936   -2.3901    0.0000 C   0  0  0  0  0  0  0  0  0  0  0  0
    3.9722   -3.2277    0.0000 C   0  0  0  0  0  0  0  0  0  0  0  0
    7.5172   -0.3173    0.0000 C   0  0  0  0  0  0  0  0  0  0  0  0
   -0.9729    0.8333    0.0000 C   0  0  0  0  0  0  0  0  0  0  0  0
   -1.7513    0.5711    0.0000 C   0  0  0  0  0  0  0  0  0  0  0  0
    2.9570    3.3334    0.0000 C   0  0  0  0  0  0  0  0  0  0  0  0
    6.8065   -1.5610    0.0000 C   0  0  0  0  0  0  0  0  0  0  0  0
    3.2912    2.5762    0.0000 C   0  0  0  0  0  0  0  0  0  0  0  0
    5.3979   -3.2150    0.0000 C   0  0  0  0  0  0  0  0  0  0  0  0
    4.6872   -3.6338    0.0000 C   0  0  0  0  0  0  0  0  0  0  0  0
   -2.3689    1.1168    0.0000 C   0  0  0  0  0  0  0  0  0  0  0  0
    7.5256   -1.1464    0.0000 C   0  0  0  0  0  0  0  0  0  0  0  0
  2  4  1  0
  3 13  1  0
  4  1  1  0
  5  6  2  0
  6  1  1  0
  7  3  1  0
  8  7  1  0
  9 10  2  0
 10  2  1  0
 11  9  1  0
 12  1  1  0
 13 16  1  0
 14  8  1  0
 15 12  1  0
 16 17  1  0
 17 26  1  0
 18 15  2  0
 19  3  2  0
 20  3  2  0
 21 18  1  0
 22  4  2  0
 23 14  2  0
 24  8  2  0
 25 15  1  0
 26 25  2  0
 27 11  1  0
 28 11  1  0
 29 11  1  0
 30 18  1  0
 31 23  1  0
 32  6  1  0
 33  9  1  0
 34 14  1  0
 35 10  1  0
 36 13  2  0
 37 16  2  0
 38 23  1  0
 39 32  1  0
 40 39  1  0
 41 43  1  0
 42 34  2  0
 43 35  2  0
 44 45  2  0
 45 37  1  0
 46 40  1  0
 47 42  1  0
  5  2  1  0
 17 21  2  0
 41 33  2  0
 36 44  1  0
 47 38  2  0
M  END
>  <From>  (1) 
www.bindingDB.org

>  <BindingDB Reactant_set_id>  (1) 
50470353

>  <Ligand InChI>  (1) 
InChI=1S/C33H27ClF4N4O4S/c1-2-3-16-30-39-42(28-14-8-6-12-25(28)33(36,37)38)32(44)41(30)20-22-18-17-21(19-27(22)35)23-10-5-9-15-29(23)47(45,46)40-31(43)24-11-4-7-13-26(24)34/h4-15,17-19H,2-3,16,20H2,1H3,(H,40,43)

>  <Ligand InChI Key>  (1) 
DJAYGOBKVFNIEL-UHFFFAOYSA-N

>  <BindingDB MonomerID>  (1) 
50283762

>  <BindingDB Ligand Name>  (1) 
4'-[3-Butyl-5-oxo-1-(2-trifluoromethyl-phenyl)-1,5-dihydro-[1,2,4]triazol-4-ylmethyl]-3'-fluoro-biphenyl-2-sulfonic acid 2-chloro-benzoylamide::CHEMBL329679

>  <Target Name>  (1) 
Type-1 angiotensin II receptor

>  <Target Source Organism According to Curator or DataSource>  (1) 
Oryctolagus cuniculus

>  <Ki (nM)>  (1) 


>  <IC50 (nM)>  (1) 
 0.150000

>  <Kd (nM)>  (1) 


>  <EC50 (nM)>  (1) 


>  <kon (M-1-s-1)>  (1) 


>  <koff (s-1)>  (1) 


>  <pH>  (1) 


>  <Temp C>  (1) 


>  <Curation/DataSource>  (1) 
ChEMBL

>  <Article DOI>  (1) 
10.1016/S0960-894X(01)80595-3

>  <BindingDB Entry DOI>  (1) 
10.7270/Q2WS8T68

>  <PMID>  (1) 


>  <PubChem AID>  (1) 


>  <Patent Number>  (1) 


>  <Authors>  (1) 
Chang, LL; Ashton, WT; Flanagan, KL; Rivero, RA; Chen, TB; O'Malley, SS; Zingaro, GJ; Kivlighn, SD; Siegl, PK; Lotti, VJ; Chang, RS; Greenlee, WJ

>  <Institution>  (1) 
TBA

>  <Link to Ligand in BindingDB>  (1) 
http://www.bindingdb.org/bind/chemsearch/marvin/MolStructure.jsp?monomerid=50283762

>  <Link to Ligand-Target Pair in BindingDB>  (1) 
http://www.bindingdb.org/jsp/dbsearch/PrimarySearch_ki.jsp?energyterm=kJ/mole&tag=r21&monomerid=50283762&enzyme=Type-1+angiotensin+II+receptor&column=ki&startPg=0&Increment=50&submit=Search

>  <Ligand HET ID in PDB>  (1) 


>  <PDB ID(s) for Ligand-Target Complex>  (1) 


>  <PubChem CID of Ligand>  (1) 
19939453

>  <PubChem SID of Ligand>  (1) 
104125419

>  <ChEBI ID of Ligand>  (1) 


>  <ChEMBL ID of Ligand>  (1) 
CHEMBL329679

>  <DrugBank ID of Ligand>  (1) 


>  <IUPHAR_GRAC ID of Ligand>  (1) 


>  <KEGG ID of Ligand>  (1) 


>  <ZINC ID of Ligand>  (1) 
ZINC26666273

>  <Number of Protein Chains in Target (bigger than 1 implies a multichain complex)>  (1) 
1

>  <BindingDB Target Chain Sequence>  (1) 
MMLNSSTEDGIKRIQDDCPKAGRHNYIFVMIPTLYSIIFVVGIFGNSLAVIVIYFYMKLKTVASVFLLNLALADLCFLLTLPLWAVYTAMEYRWPFGNYLCKIASASVSFNLYASVFLLTCLSIDRYLAIVHPMKSRLRRTMLVAKVTCIIIWLLAGLASLPAIIHRNVFFIENTNITVCAFHYESQNSTLPIGLGLTKNILGFLFPFLIILTSYTLIWKALKKAYEIQKNKPRNDDIFKIIMAIVLFFFFSWVPHQIFTFLDVLIQLGVIHDCRIADIVDTAMPITICIAYFNNCLNPLFYGFLGKKFKKYFLQLLKYIPPKAKSHSNLSTKMSTLSYRPSDNVSSSSKKPVPCFEVE

>  <PDB ID(s) of Target Chain>  (1) 
6DO1,6OS0,6OS1,6OS2

>  <UniProt (SwissProt) Recommended Name of Target Chain>  (1) 
Type-1 angiotensin II receptor

>  <UniProt (SwissProt) Entry Name of Target Chain>  (1) 
AGTR1_RABIT

>  <UniProt (SwissProt) Primary ID of Target Chain>  (1) 
P34976

>  <UniProt (SwissProt) Secondary ID(s) of Target Chain>  (1) 


>  <UniProt (SwissProt) Alternative ID(s) of Target Chain>  (1) 


>  <UniProt (TrEMBL) Submitted Name of Target Chain>  (1) 


>  <UniProt (TrEMBL) Entry Name of Target Chain>  (1) 


>  <UniProt (TrEMBL) Primary ID of Target Chain>  (1) 


>  <UniProt (TrEMBL) Secondary ID(s) of Target Chain>  (1) 


>  <UniProt (TrEMBL) Alternative ID(s) of Target Chain>  (1) 


$$$$
