 
     RDKit          2D

 33 37  0  0  0  0  0  0  0  0999 V2000
   -5.7995  -14.8407    0.0000 C   0  0  0  0  0  0  0  0  0  0  0  0
   -5.8007  -15.6683    0.0000 C   0  0  0  0  0  0  0  0  0  0  0  0
   -5.0878  -16.0813    0.0000 C   0  0  0  0  0  0  0  0  0  0  0  0
   -5.0898  -14.4280    0.0000 C   0  0  0  0  0  0  0  0  0  0  0  0
   -4.3716  -14.8368    0.0000 C   0  0  0  0  0  0  0  0  0  0  0  0
   -4.3664  -15.6683    0.0000 C   0  0  0  0  0  0  0  0  0  0  0  0
   -3.5740  -15.9205    0.0000 N   0  0  0  0  0  0  0  0  0  0  0  0
   -3.0892  -15.2446    0.0000 C   0  0  0  0  0  0  0  0  0  0  0  0
   -3.5824  -14.5750    0.0000 N   0  0  0  0  0  0  0  0  0  0  0  0
   -2.2643  -15.2395    0.0000 O   0  0  0  0  0  0  0  0  0  0  0  0
   -1.8562  -14.5224    0.0000 C   0  0  0  0  0  0  0  0  0  0  0  0
   -3.3142  -16.7034    0.0000 C   0  0  0  0  0  0  0  0  0  0  0  0
   -2.5061  -16.8700    0.0000 C   0  0  0  0  0  0  0  0  0  0  0  0
   -2.2505  -17.6523    0.0000 C   0  0  0  0  0  0  0  0  0  0  0  0
   -1.4433  -17.8190    0.0000 C   0  0  0  0  0  0  0  0  0  0  0  0
   -0.8941  -17.2022    0.0000 C   0  0  0  0  0  0  0  0  0  0  0  0
   -1.1577  -16.4159    0.0000 C   0  0  0  0  0  0  0  0  0  0  0  0
   -1.9643  -16.2529    0.0000 C   0  0  0  0  0  0  0  0  0  0  0  0
   -0.0887  -17.3672    0.0000 C   0  0  0  0  0  0  0  0  0  0  0  0
    0.1712  -18.1514    0.0000 C   0  0  0  0  0  0  0  0  0  0  0  0
    0.9786  -18.3170    0.0000 C   0  0  0  0  0  0  0  0  0  0  0  0
    1.5269  -17.6994    0.0000 C   0  0  0  0  0  0  0  0  0  0  0  0
    1.2622  -16.9135    0.0000 C   0  0  0  0  0  0  0  0  0  0  0  0
    0.4555  -16.7516    0.0000 C   0  0  0  0  0  0  0  0  0  0  0  0
    0.1914  -15.9689    0.0000 C   0  0  0  0  0  0  0  0  0  0  0  0
    0.6695  -15.2966    0.0000 N   0  0  0  0  0  0  0  0  0  0  0  0
    0.1778  -14.6341    0.0000 N   0  0  0  0  0  0  0  0  0  0  0  0
   -0.6043  -14.8970    0.0000 N   0  0  0  0  0  0  0  0  0  0  0  0
   -0.5958  -15.7220    0.0000 N   0  0  0  0  0  0  0  0  0  0  0  0
   -2.2733  -13.8106    0.0000 C   0  0  0  0  0  0  0  0  0  0  0  0
   -5.0899  -16.9063    0.0000 C   0  0  0  0  0  0  0  0  0  0  0  0
   -5.8053  -17.3169    0.0000 O   0  0  0  0  0  0  0  0  0  0  0  0
   -4.3764  -17.3205    0.0000 O   0  0  0  0  0  0  0  0  0  0  0  0
 15 16  2  0
  6  7  1  0
 16 17  1  0
  7  8  1  0
 17 18  2  0
 18 13  1  0
  8  9  2  0
  9  5  1  0
 19 20  2  0
  4  1  2  0
 20 21  1  0
  8 10  1  0
 21 22  2  0
  5  6  2  0
 22 23  1  0
 10 11  1  0
 23 24  2  0
 24 19  1  0
 16 19  1  0
 25 26  2  0
  7 12  1  0
  2  3  2  0
 12 13  1  0
  3  6  1  0
 26 27  1  0
 27 28  2  0
 28 29  1  0
 29 25  1  0
 24 25  1  0
 13 14  2  0
 11 30  1  0
  1  2  1  0
  3 31  1  0
 14 15  1  0
 31 32  2  0
  5  4  1  0
 31 33  1  0
M  END
>  <From>  (1) 
www.bindingDB.org

>  <BindingDB Reactant_set_id>  (1) 
50472801

>  <Ligand InChI>  (1) 
InChI=1S/C24H20N6O3/c1-2-33-24-25-20-9-5-8-19(23(31)32)21(20)30(24)14-15-10-12-16(13-11-15)17-6-3-4-7-18(17)22-26-28-29-27-22/h3-13H,2,14H2,1H3,(H,31,32)(H,26,27,28,29)

>  <Ligand InChI Key>  (1) 
HTQMVQVXFRQIKW-UHFFFAOYSA-N

>  <BindingDB MonomerID>  (1) 
50240609

>  <BindingDB Ligand Name>  (1) 
2-Ethoxy-3-[2'-(1H-tetrazol-5-yl)-biphenyl-4-ylmethyl]-3H-benzoimidazole-4-carboxylic acid(CV-11974)::2-Ethoxy-3-[2'-(2H-tetrazol-5-yl)-biphenyl-4-ylmethyl]-3H-benzoimidazole-4-carboxylic acid::2-ethoxy-3-[2'-(1H-tetrazol-5-yl)-biphenyl-4-ylmethyl]-3H-benzoimidazole-4-carboxylic acid::CANDESARTAN::CHEMBL1016::CV-11974

>  <Target Name>  (1) 
Type-1 angiotensin II receptor

>  <Target Source Organism According to Curator or DataSource>  (1) 
Bos taurus

>  <Ki (nM)>  (1) 


>  <IC50 (nM)>  (1) 
 110

>  <Kd (nM)>  (1) 


>  <EC50 (nM)>  (1) 


>  <kon (M-1-s-1)>  (1) 


>  <koff (s-1)>  (1) 


>  <pH>  (1) 


>  <Temp C>  (1) 


>  <Curation/DataSource>  (1) 
ChEMBL

>  <Article DOI>  (1) 
10.1016/0960-894X(95)00319-O

>  <BindingDB Entry DOI>  (1) 
10.7270/Q26M36SM

>  <PMID>  (1) 


>  <PubChem AID>  (1) 


>  <Patent Number>  (1) 


>  <Authors>  (1) 
Kohara, Y; Imamiya, E; Kubo, K; Wada, T; Inada, Y; Naka, T

>  <Institution>  (1) 
TBA

>  <Link to Ligand in BindingDB>  (1) 
http://www.bindingdb.org/bind/chemsearch/marvin/MolStructure.jsp?monomerid=50240609

>  <Link to Ligand-Target Pair in BindingDB>  (1) 
http://www.bindingdb.org/jsp/dbsearch/PrimarySearch_ki.jsp?energyterm=kJ/mole&tag=r21&monomerid=50240609&enzyme=Type-1+angiotensin+II+receptor&column=ki&startPg=0&Increment=50&submit=Search

>  <Ligand HET ID in PDB>  (1) 


>  <PDB ID(s) for Ligand-Target Complex>  (1) 


>  <PubChem CID of Ligand>  (1) 
2541

>  <PubChem SID of Ligand>  (1) 
104098375

>  <ChEBI ID of Ligand>  (1) 
3347

>  <ChEMBL ID of Ligand>  (1) 
CHEMBL1016

>  <DrugBank ID of Ligand>  (1) 


>  <IUPHAR_GRAC ID of Ligand>  (1) 
587

>  <KEGG ID of Ligand>  (1) 
C07468

>  <ZINC ID of Ligand>  (1) 
ZINC03782818

>  <Number of Protein Chains in Target (bigger than 1 implies a multichain complex)>  (1) 
1

>  <BindingDB Target Chain Sequence>  (1) 
MILNSSTEDGIKRIQDDCPKAGRHNYIFIMIPTLYSIIFVVGIFGNSLVVIVIYFYMKLKTVASVFLLNLALADLCFLLTLPLWAVYTAMEYRWPFGNYLCKIASASVSFNLYASVFLLTCLSIDRYLAIVHPMKSRLRRTMLVAKVTCIIIWLLAGLASLPTIIHRNVFFIENTNITVCAFHYESQNSTLPVGLGLTKNILGFLFPFLIILTSYTLIWKTLKKAYEIQKNKPRKDDIFKIILAIVLFFFFSWVPHQIFTFMDVLIQLGLIRDCKIEDIVDTAMPITICLAYFNNCLNPLFYGFLGKKFKKYFLQLLKYIPPKAKSHSNLSTKMSTLSYRPSENGNSSTKKPAPCIEVE

>  <PDB ID(s) of Target Chain>  (1) 


>  <UniProt (SwissProt) Recommended Name of Target Chain>  (1) 
Type-1 angiotensin II receptor

>  <UniProt (SwissProt) Entry Name of Target Chain>  (1) 
AGTR1_BOVIN

>  <UniProt (SwissProt) Primary ID of Target Chain>  (1) 
P25104

>  <UniProt (SwissProt) Secondary ID(s) of Target Chain>  (1) 


>  <UniProt (SwissProt) Alternative ID(s) of Target Chain>  (1) 


>  <UniProt (TrEMBL) Submitted Name of Target Chain>  (1) 


>  <UniProt (TrEMBL) Entry Name of Target Chain>  (1) 


>  <UniProt (TrEMBL) Primary ID of Target Chain>  (1) 


>  <UniProt (TrEMBL) Secondary ID(s) of Target Chain>  (1) 


>  <UniProt (TrEMBL) Alternative ID(s) of Target Chain>  (1) 


$$$$
