
     RDKit          2D

 41 45  0  0  0  0  0  0  0  0999 V2000
    2.6096   -3.1983    0.0000 N   0  0  0  0  0  0  0  0  0  0  0  0
    2.6096   -4.0376    0.0000 C   0  0  0  0  0  0  0  0  0  0  0  0
    1.8831   -4.4509    0.0000 N   0  0  0  0  0  0  0  0  0  0  0  0
    1.8831   -2.7850    0.0000 C   0  0  0  0  0  0  0  0  0  0  0  0
    1.1691   -3.1983    0.0000 C   0  0  0  0  0  0  0  0  0  0  0  0
    1.1691   -4.0376    0.0000 C   0  0  0  0  0  0  0  0  0  0  0  0
    4.0250   -8.1711    0.0000 C   0  0  0  0  0  0  0  0  0  0  0  0
    2.7223   -8.4467    0.0000 N   0  0  0  0  0  0  0  0  0  0  0  0
    3.2735   -7.8329    0.0000 N   0  0  0  0  0  0  0  0  0  0  0  0
    3.1315   -9.1606    0.0000 N   0  0  0  0  0  0  0  0  0  0  0  0
    3.3236   -2.7850    0.0000 C   0  0  0  0  0  0  0  0  0  0  0  0
    3.9373   -8.9936    0.0000 N   0  0  0  0  0  0  0  0  0  0  0  0
    4.7390   -7.7577    0.0000 C   0  0  0  0  0  0  0  0  0  0  0  0
    4.0376   -3.1983    0.0000 C   0  0  0  0  0  0  0  0  0  0  0  0
    4.7390   -6.9268    0.0000 C   0  0  0  0  0  0  0  0  0  0  0  0
    4.7515   -1.9540    0.0000 C   0  0  0  0  0  0  0  0  0  0  0  0
    4.7515   -2.7808    0.0000 C   0  0  0  0  0  0  0  0  0  0  0  0
    1.8831   -5.2776    0.0000 C   0  0  0  0  0  0  0  0  0  0  0  0
    3.3236   -4.4509    0.0000 O   0  0  0  0  0  0  0  0  0  0  0  0
    4.0333   -6.5177    0.0000 C   0  0  0  0  0  0  0  0  0  0  0  0
    1.8831   -1.9583    0.0000 O   0  0  0  0  0  0  0  0  0  0  0  0
    4.0333   -1.5449    0.0000 O   0  0  0  0  0  0  0  0  0  0  0  0
    3.3110   -6.9310    0.0000 C   0  0  0  0  0  0  0  0  0  0  0  0
    4.0250   -5.6868    0.0000 C   0  0  0  0  0  0  0  0  0  0  0  0
    2.5971   -5.6910    0.0000 C   0  0  0  0  0  0  0  0  0  0  0  0
    5.4613   -1.5324    0.0000 O   0  0  0  0  0  0  0  0  0  0  0  0
    3.3110   -5.2776    0.0000 C   0  0  0  0  0  0  0  0  0  0  0  0
    2.5971   -6.5177    0.0000 C   0  0  0  0  0  0  0  0  0  0  0  0
    0.4551   -4.4509    0.0000 C   0  0  0  0  0  0  0  0  0  0  0  0
    5.4530   -8.1711    0.0000 C   0  0  0  0  0  0  0  0  0  0  0  0
    5.4530   -6.5177    0.0000 C   0  0  0  0  0  0  0  0  0  0  0  0
    4.0376   -4.0250    0.0000 C   0  0  0  0  0  0  0  0  0  0  0  0
    5.4655   -3.1858    0.0000 C   0  0  0  0  0  0  0  0  0  0  0  0
    6.1795   -1.9457    0.0000 C   0  0  0  0  0  0  0  0  0  0  0  0
   -0.2588   -4.0376    0.0000 C   0  0  0  0  0  0  0  0  0  0  0  0
   -0.9770   -4.4509    0.0000 C   0  0  0  0  0  0  0  0  0  0  0  0
    6.1753   -7.7577    0.0000 C   0  0  0  0  0  0  0  0  0  0  0  0
    6.1670   -6.9268    0.0000 C   0  0  0  0  0  0  0  0  0  0  0  0
    4.7598   -4.4342    0.0000 C   0  0  0  0  0  0  0  0  0  0  0  0
    5.4738   -4.0125    0.0000 C   0  0  0  0  0  0  0  0  0  0  0  0
   -1.6910   -4.0376    0.0000 C   0  0  0  0  0  0  0  0  0  0  0  0
  2  1  1  0
  3  2  1  0
  4  1  1  0
  5  4  1  0
  6  5  2  0
  7 13  1  0
  8  9  1  0
  9  7  1  0
 10 12  1  0
 11  1  1  0
 12  7  2  0
 13 15  1  0
 14 11  1  0
 15 20  1  0
 16 17  1  0
 17 14  2  0
 18  3  1  0
 19  2  2  0
 20 23  2  0
 21  4  2  0
 22 16  2  0
 23 28  1  0
 24 27  2  0
 25 18  1  0
 26 16  1  0
 27 25  1  0
 28 25  2  0
 29  6  1  0
 30 13  2  0
 31 15  2  0
 32 14  1  0
 33 17  1  0
 34 26  1  0
 35 29  1  0
 36 35  1  0
 37 38  2  0
 38 31  1  0
 39 32  2  0
 40 39  1  0
 41 36  1  0
  6  3  1  0
 33 40  2  0
 24 20  1  0
 30 37  1  0
  8 10  2  0
M  END
>  <From>  (1) 
www.bindingDB.org

>  <BindingDB Reactant_set_id>  (1) 
50473189

>  <Ligand InChI>  (1) 
InChI=1S/C31H30N6O4/c1-3-4-10-24-18-28(38)37(20-23-9-5-6-12-26(23)30(39)41-2)31(40)36(24)19-21-14-16-22(17-15-21)25-11-7-8-13-27(25)29-32-34-35-33-29/h5-9,11-18H,3-4,10,19-20H2,1-2H3,(H,32,33,34,35)

>  <Ligand InChI Key>  (1) 
QZLYOKHNUOFSHZ-UHFFFAOYSA-N

>  <BindingDB MonomerID>  (1) 
50285163

>  <BindingDB Ligand Name>  (1) 
2-{4-Butyl-2,6-dioxo-3-[2'-(1H-tetrazol-5-yl)-biphenyl-4-ylmethyl]-3,6-dihydro-2H-pyrimidin-1-ylmethyl}-benzoic acid methyl ester::CHEMBL304251

>  <Target Name>  (1) 
Type-1 angiotensin II receptor

>  <Target Source Organism According to Curator or DataSource>  (1) 
Bos taurus

>  <Ki (nM)>  (1) 


>  <IC50 (nM)>  (1) 
 27

>  <Kd (nM)>  (1) 


>  <EC50 (nM)>  (1) 


>  <kon (M-1-s-1)>  (1) 


>  <koff (s-1)>  (1) 


>  <pH>  (1) 


>  <Temp C>  (1) 


>  <Curation/DataSource>  (1) 
ChEMBL

>  <Article DOI>  (1) 
10.1016/0960-894X(95)00370-9

>  <BindingDB Entry DOI>  (1) 
10.7270/Q2SF2W4J

>  <PMID>  (1) 


>  <PubChem AID>  (1) 


>  <Patent Number>  (1) 


>  <Authors>  (1) 
Dorsch, D; Mederski, WW; Osswald, M; Beier, N; Schelling, P

>  <Institution>  (1) 
TBA

>  <Link to Ligand in BindingDB>  (1) 
http://www.bindingdb.org/bind/chemsearch/marvin/MolStructure.jsp?monomerid=50285163

>  <Link to Ligand-Target Pair in BindingDB>  (1) 
http://www.bindingdb.org/jsp/dbsearch/PrimarySearch_ki.jsp?energyterm=kJ/mole&tag=r21&monomerid=50285163&enzyme=Type-1+angiotensin+II+receptor&column=ki&startPg=0&Increment=50&submit=Search

>  <Ligand HET ID in PDB>  (1) 


>  <PDB ID(s) for Ligand-Target Complex>  (1) 


>  <PubChem CID of Ligand>  (1) 
44305681

>  <PubChem SID of Ligand>  (1) 
104126734

>  <ChEBI ID of Ligand>  (1) 


>  <ChEMBL ID of Ligand>  (1) 
CHEMBL304251

>  <DrugBank ID of Ligand>  (1) 


>  <IUPHAR_GRAC ID of Ligand>  (1) 


>  <KEGG ID of Ligand>  (1) 


>  <ZINC ID of Ligand>  (1) 
ZINC26173310

>  <Number of Protein Chains in Target (bigger than 1 implies a multichain complex)>  (1) 
1

>  <BindingDB Target Chain Sequence>  (1) 
MILNSSTEDGIKRIQDDCPKAGRHNYIFIMIPTLYSIIFVVGIFGNSLVVIVIYFYMKLKTVASVFLLNLALADLCFLLTLPLWAVYTAMEYRWPFGNYLCKIASASVSFNLYASVFLLTCLSIDRYLAIVHPMKSRLRRTMLVAKVTCIIIWLLAGLASLPTIIHRNVFFIENTNITVCAFHYESQNSTLPVGLGLTKNILGFLFPFLIILTSYTLIWKTLKKAYEIQKNKPRKDDIFKIILAIVLFFFFSWVPHQIFTFMDVLIQLGLIRDCKIEDIVDTAMPITICLAYFNNCLNPLFYGFLGKKFKKYFLQLLKYIPPKAKSHSNLSTKMSTLSYRPSENGNSSTKKPAPCIEVE

>  <PDB ID(s) of Target Chain>  (1) 


>  <UniProt (SwissProt) Recommended Name of Target Chain>  (1) 
Type-1 angiotensin II receptor

>  <UniProt (SwissProt) Entry Name of Target Chain>  (1) 
AGTR1_BOVIN

>  <UniProt (SwissProt) Primary ID of Target Chain>  (1) 
P25104

>  <UniProt (SwissProt) Secondary ID(s) of Target Chain>  (1) 


>  <UniProt (SwissProt) Alternative ID(s) of Target Chain>  (1) 


>  <UniProt (TrEMBL) Submitted Name of Target Chain>  (1) 


>  <UniProt (TrEMBL) Entry Name of Target Chain>  (1) 


>  <UniProt (TrEMBL) Primary ID of Target Chain>  (1) 


>  <UniProt (TrEMBL) Secondary ID(s) of Target Chain>  (1) 


>  <UniProt (TrEMBL) Alternative ID(s) of Target Chain>  (1) 


$$$$
