
     RDKit          2D

 32 34  0  0  1  0  0  0  0  0999 V2000
    5.2400   -3.0230    0.0000 N   0  0  0  0  0  0  0  0  0  0  0  0
    7.3820   -6.7515    0.0000 C   0  0  0  0  0  0  0  0  0  0  0  0
    6.0793   -7.0270    0.0000 N   0  0  0  0  0  0  0  0  0  0  0  0
    6.6304   -6.4133    0.0000 N   0  0  0  0  0  0  0  0  0  0  0  0
    6.4884   -7.7452    0.0000 N   0  0  0  0  0  0  0  0  0  0  0  0
    7.2943   -7.5699    0.0000 N   0  0  0  0  0  0  0  0  0  0  0  0
    8.0959   -6.3298    0.0000 C   0  0  0  0  0  0  0  0  0  0  0  0
    5.9540   -2.6096    0.0000 C   0  0  0  0  0  0  0  0  0  0  0  0
    4.5219   -2.6096    0.0000 C   0  0  0  0  0  0  0  0  0  0  0  0
    8.0959   -5.5031    0.0000 C   0  0  0  0  0  0  0  0  0  0  0  0
    5.9540   -1.7829    0.0000 C   0  0  0  0  0  0  0  0  0  0  0  0
    5.2400   -3.8497    0.0000 C   0  0  0  0  0  0  0  0  0  0  0  0
    7.3820   -5.0897    0.0000 C   0  0  0  0  0  0  0  0  0  0  0  0
    4.5219   -1.7829    0.0000 O   0  0  0  0  0  0  0  0  0  0  0  0
    5.2358   -1.3695    0.0000 O   0  0  0  0  0  0  0  0  0  0  0  0
    7.3820   -4.2630    0.0000 C   0  0  0  0  0  0  0  0  0  0  0  0
    6.6763   -5.5031    0.0000 C   0  0  0  0  0  0  0  0  0  0  0  0
    5.9540   -4.2630    0.0000 C   0  0  0  0  0  0  0  0  0  0  0  0
    6.6680   -3.0230    0.0000 C   0  0  0  0  0  0  0  0  0  0  0  0
    6.6680   -1.3653    0.0000 O   0  0  0  0  0  0  0  0  0  0  0  0
    5.9540   -5.0897    0.0000 C   0  0  0  0  0  0  0  0  0  0  0  0
    6.6680   -3.8497    0.0000 C   0  0  0  0  0  0  0  0  0  0  0  0
    8.8099   -6.7431    0.0000 C   0  0  0  0  0  0  0  0  0  0  0  0
    3.7996   -3.0187    0.0000 C   0  0  0  0  0  0  0  0  0  0  0  0
    8.8099   -5.0897    0.0000 C   0  0  0  0  0  0  0  0  0  0  0  0
    7.0771   -3.7369    0.0000 C   0  0  0  0  0  0  0  0  0  0  0  0
    7.2567   -2.4342    0.0000 C   0  0  0  0  0  0  0  0  0  0  0  0
    3.0856   -2.6054    0.0000 C   0  0  0  0  0  0  0  0  0  0  0  0
    2.3674   -3.0104    0.0000 C   0  0  0  0  0  0  0  0  0  0  0  0
    9.5322   -5.5031    0.0000 C   0  0  0  0  0  0  0  0  0  0  0  0
    9.5322   -6.3298    0.0000 C   0  0  0  0  0  0  0  0  0  0  0  0
    1.6534   -2.5971    0.0000 C   0  0  0  0  0  0  0  0  0  0  0  0
  2  7  1  0
  3  4  1  0
  4  2  1  0
  5  6  1  0
  6  2  2  0
  7 10  1  0
  8  1  1  0
  9  1  1  0
 10 13  1  0
  8 11  1  0
 12  1  1  0
 13 16  2  0
 14  9  2  0
 15 11  2  0
 16 22  1  0
 17 21  2  0
 18 12  1  0
  8 19  1  1
 20 11  1  0
 21 18  1  0
 22 18  2  0
 23  7  2  0
 24  9  1  0
 25 10  2  0
 26 19  1  0
 27 19  1  0
 28 24  1  0
 29 28  1  0
 30 25  1  0
 31 30  2  0
 32 29  1  0
 17 13  1  0
 23 31  1  0
  3  5  2  0
M  END
>  <From>  (1) 
www.bindingDB.org

>  <BindingDB Reactant_set_id>  (1) 
50467543

>  <Ligand InChI>  (1) 
InChI=1S/C24H29N5O3/c1-4-5-10-21(30)29(22(16(2)3)24(31)32)15-17-11-13-18(14-12-17)19-8-6-7-9-20(19)23-25-27-28-26-23/h6-9,11-14,16,22H,4-5,10,15H2,1-3H3,(H,31,32)(H,25,26,27,28)/t22-/m1/s1

>  <Ligand InChI Key>  (1) 
ACWBQPMHZXGDFX-JOCHJYFZSA-N

>  <BindingDB MonomerID>  (1) 
50282371

>  <BindingDB Ligand Name>  (1) 
(R)-3-Methyl-2-{pentanoyl-[2'-(1H-tetrazol-5-yl)-biphenyl-4-ylmethyl]-amino}-butyric acid::CHEMBL115622

>  <Target Name>  (1) 
Type-1 angiotensin II receptor

>  <Target Source Organism According to Curator or DataSource>  (1) 
Homo sapiens

>  <Ki (nM)>  (1) 


>  <IC50 (nM)>  (1) 
 300

>  <Kd (nM)>  (1) 


>  <EC50 (nM)>  (1) 


>  <kon (M-1-s-1)>  (1) 


>  <koff (s-1)>  (1) 


>  <pH>  (1) 


>  <Temp C>  (1) 


>  <Curation/DataSource>  (1) 
ChEMBL

>  <Article DOI>  (1) 
10.1016/S0960-894X(01)81117-3

>  <BindingDB Entry DOI>  (1) 
10.7270/Q25Q4W14

>  <PMID>  (1) 


>  <PubChem AID>  (1) 


>  <Patent Number>  (1) 


>  <Authors>  (1) 
B&#xfc;hlmayer, P; Furet, P; Criscione, L; Gasparo, Md; Whitebread, S; Schmidlin, T; Lattmann, R; Wood, J

>  <Institution>  (1) 
TBA

>  <Link to Ligand in BindingDB>  (1) 
http://www.bindingdb.org/bind/chemsearch/marvin/MolStructure.jsp?monomerid=50282371

>  <Link to Ligand-Target Pair in BindingDB>  (1) 
http://www.bindingdb.org/jsp/dbsearch/PrimarySearch_ki.jsp?energyterm=kJ/mole&tag=r21&monomerid=50282371&enzyme=Type-1+angiotensin+II+receptor&column=ki&startPg=0&Increment=50&submit=Search

>  <Ligand HET ID in PDB>  (1) 


>  <PDB ID(s) for Ligand-Target Complex>  (1) 


>  <PubChem CID of Ligand>  (1) 
5284633

>  <PubChem SID of Ligand>  (1) 
104124045

>  <ChEBI ID of Ligand>  (1) 


>  <ChEMBL ID of Ligand>  (1) 
CHEMBL115622

>  <DrugBank ID of Ligand>  (1) 


>  <IUPHAR_GRAC ID of Ligand>  (1) 


>  <KEGG ID of Ligand>  (1) 


>  <ZINC ID of Ligand>  (1) 
ZINC03831602

>  <Number of Protein Chains in Target (bigger than 1 implies a multichain complex)>  (1) 
1

>  <BindingDB Target Chain Sequence>  (1) 
MILNSSTEDGIKRIQDDCPKAGRHNYIFVMIPTLYSIIFVVGIFGNSLVVIVIYFYMKLKTVASVFLLNLALADLCFLLTLPLWAVYTAMEYRWPFGNYLCKIASASVSFNLYASVFLLTCLSIDRYLAIVHPMKSRLRRTMLVAKVTCIIIWLLAGLASLPAIIHRNVFFIENTNITVCAFHYESQNSTLPIGLGLTKNILGFLFPFLIILTSYTLIWKALKKAYEIQKNKPRNDDIFKIIMAIVLFFFFSWIPHQIFTFLDVLIQLGIIRDCRIADIVDTAMPITICIAYFNNCLNPLFYGFLGKKFKRYFLQLLKYIPPKAKSHSNLSTKMSTLSYRPSDNVSSSTKKPAPCFEVE

>  <PDB ID(s) of Target Chain>  (1) 
6DO1,6OS0,6OS1,6OS2

>  <UniProt (SwissProt) Recommended Name of Target Chain>  (1) 
Type-1 angiotensin II receptor

>  <UniProt (SwissProt) Entry Name of Target Chain>  (1) 
AGTR1_HUMAN

>  <UniProt (SwissProt) Primary ID of Target Chain>  (1) 
P30556

>  <UniProt (SwissProt) Secondary ID(s) of Target Chain>  (1) 
Q13725 Q8TBK4

>  <UniProt (SwissProt) Alternative ID(s) of Target Chain>  (1) 


>  <UniProt (TrEMBL) Submitted Name of Target Chain>  (1) 


>  <UniProt (TrEMBL) Entry Name of Target Chain>  (1) 


>  <UniProt (TrEMBL) Primary ID of Target Chain>  (1) 


>  <UniProt (TrEMBL) Secondary ID(s) of Target Chain>  (1) 


>  <UniProt (TrEMBL) Alternative ID(s) of Target Chain>  (1) 


$$$$
