
     RDKit          2D

 46 50  0  0  0  0  0  0  0  0999 V2000
    8.7542   -2.5417    0.0000 S   0  0  0  0  0  0  0  0  0  0  0  0
    4.4792   -2.5292    0.0000 N   0  0  0  0  0  0  0  0  0  0  0  0
    3.7667   -2.1167    0.0000 C   0  0  0  0  0  0  0  0  0  0  0  0
    3.0542   -2.5292    0.0000 C   0  0  0  0  0  0  0  0  0  0  0  0
    8.7542   -1.7167    0.0000 N   0  0  0  0  0  0  0  0  0  0  0  0
    4.4792   -3.3625    0.0000 C   0  0  0  0  0  0  0  0  0  0  0  0
    3.7667   -3.7750    0.0000 N   0  0  0  0  0  0  0  0  0  0  0  0
    3.0500   -3.3542    0.0000 C   0  0  0  0  0  0  0  0  0  0  0  0
    8.7625   -3.3667    0.0000 C   0  0  0  0  0  0  0  0  0  0  0  0
    9.4625   -1.2917    0.0000 C   0  0  0  0  0  0  0  0  0  0  0  0
    0.1917   -2.5375    0.0000 C   0  0  0  0  0  0  0  0  0  0  0  0
    8.0542   -3.7792    0.0000 C   0  0  0  0  0  0  0  0  0  0  0  0
    9.4667   -2.1250    0.0000 O   0  0  0  0  0  0  0  0  0  0  0  0
    8.0417   -2.1292    0.0000 O   0  0  0  0  0  0  0  0  0  0  0  0
    5.2000   -2.1250    0.0000 C   0  0  0  0  0  0  0  0  0  0  0  0
    2.3375   -2.1167    0.0000 C   0  0  0  0  0  0  0  0  0  0  0  0
    0.9125   -2.1250    0.0000 N   0  0  0  0  0  0  0  0  0  0  0  0
    3.7667   -1.2917    0.0000 O   0  0  0  0  0  0  0  0  0  0  0  0
   -0.5208   -2.1250    0.0000 N   0  0  0  0  0  0  0  0  0  0  0  0
    7.3375   -3.3667    0.0000 C   0  0  0  0  0  0  0  0  0  0  0  0
    1.6250   -2.5375    0.0000 C   0  0  0  0  0  0  0  0  0  0  0  0
    0.1917   -3.3625    0.0000 O   0  0  0  0  0  0  0  0  0  0  0  0
   10.1792   -1.7000    0.0000 O   0  0  0  0  0  0  0  0  0  0  0  0
    9.4542   -0.4667    0.0000 C   0  0  0  0  0  0  0  0  0  0  0  0
    2.3375   -3.7750    0.0000 C   0  0  0  0  0  0  0  0  0  0  0  0
    7.3375   -2.5375    0.0000 C   0  0  0  0  0  0  0  0  0  0  0  0
    6.6167   -3.7750    0.0000 C   0  0  0  0  0  0  0  0  0  0  0  0
    5.9125   -2.5375    0.0000 C   0  0  0  0  0  0  0  0  0  0  0  0
    1.6250   -3.3625    0.0000 C   0  0  0  0  0  0  0  0  0  0  0  0
    5.1917   -3.7750    0.0000 C   0  0  0  0  0  0  0  0  0  0  0  0
    6.6250   -2.1250    0.0000 C   0  0  0  0  0  0  0  0  0  0  0  0
    5.9042   -3.3625    0.0000 C   0  0  0  0  0  0  0  0  0  0  0  0
    9.4750   -3.7750    0.0000 C   0  0  0  0  0  0  0  0  0  0  0  0
    8.0500   -4.6042    0.0000 C   0  0  0  0  0  0  0  0  0  0  0  0
   -1.2333   -2.5375    0.0000 C   0  0  0  0  0  0  0  0  0  0  0  0
   10.1667   -0.0542    0.0000 C   0  0  0  0  0  0  0  0  0  0  0  0
    8.7375   -0.0667    0.0000 C   0  0  0  0  0  0  0  0  0  0  0  0
    5.1917   -4.6000    0.0000 C   0  0  0  0  0  0  0  0  0  0  0  0
   -1.9458   -2.1250    0.0000 C   0  0  0  0  0  0  0  0  0  0  0  0
   -1.2333   -3.3625    0.0000 C   0  0  0  0  0  0  0  0  0  0  0  0
    8.7625   -5.0167    0.0000 C   0  0  0  0  0  0  0  0  0  0  0  0
    9.4792   -4.6042    0.0000 C   0  0  0  0  0  0  0  0  0  0  0  0
    5.9042   -5.0167    0.0000 C   0  0  0  0  0  0  0  0  0  0  0  0
    8.7292    0.7583    0.0000 C   0  0  0  0  0  0  0  0  0  0  0  0
   10.1542    0.7708    0.0000 C   0  0  0  0  0  0  0  0  0  0  0  0
    9.4417    1.1833    0.0000 C   0  0  0  0  0  0  0  0  0  0  0  0
  2 15  1  0
  3  2  1  0
  4  3  1  0
  5  1  1  0
  6  2  1  0
  7  6  2  0
  8  7  1  0
  9  1  1  0
 10  5  1  0
 11 17  1  0
 12  9  1  0
 13  1  2  0
 14  1  2  0
 15 28  1  0
 16  4  2  0
 17 21  1  0
 18  3  2  0
 19 11  1  0
 20 12  1  0
 21 16  1  0
 22 11  2  0
 23 10  2  0
 24 10  1  0
 25  8  2  0
 26 20  2  0
 27 20  1  0
 28 32  1  0
 29 25  1  0
 30  6  1  0
 31 26  1  0
 32 27  2  0
 33  9  2  0
 34 12  2  0
 35 19  1  0
 36 24  2  0
 37 24  1  0
 38 30  1  0
 39 35  1  0
 40 35  1  0
 41 42  2  0
 42 33  1  0
 43 38  1  0
 44 37  2  0
 45 36  1  0
 46 44  1  0
 41 34  1  0
 28 31  2  0
 46 45  2  0
  8  4  1  0
 29 21  2  0
M  END
>  <From>  (1) 
www.bindingDB.org

>  <BindingDB Reactant_set_id>  (1) 
50006256

>  <Ligand InChI>  (1) 
InChI=1S/C35H35N5O5S/c1-4-10-32-38-30-20-19-27(37-35(43)36-23(2)3)21-29(30)34(42)40(32)22-24-15-17-25(18-16-24)28-13-8-9-14-31(28)46(44,45)39-33(41)26-11-6-5-7-12-26/h5-9,11-21,23H,4,10,22H2,1-3H3,(H,39,41)(H2,36,37,43)

>  <Ligand InChI Key>  (1) 
LDWKXWLDWHWNIU-UHFFFAOYSA-N

>  <BindingDB MonomerID>  (1) 
50289166

>  <BindingDB Ligand Name>  (1) 
4'-[6-(3-Isopropyl-ureido)-4-oxo-2-propyl-4H-quinazolin-3-ylmethyl]-biphenyl-2-sulfonic acid benzoylamide::CHEMBL176473

>  <Target Name>  (1) 
Type-1 angiotensin II receptor

>  <Target Source Organism According to Curator or DataSource>  (1) 
Oryctolagus cuniculus

>  <Ki (nM)>  (1) 


>  <IC50 (nM)>  (1) 
 0.900000

>  <Kd (nM)>  (1) 


>  <EC50 (nM)>  (1) 


>  <kon (M-1-s-1)>  (1) 


>  <koff (s-1)>  (1) 


>  <pH>  (1) 


>  <Temp C>  (1) 


>  <Curation/DataSource>  (1) 
ChEMBL

>  <Article DOI>  (1) 
10.1016/0960-894X(96)00116-3

>  <BindingDB Entry DOI>  (1) 
10.7270/Q2MC900D

>  <PMID>  (1) 


>  <PubChem AID>  (1) 


>  <Patent Number>  (1) 


>  <Authors>  (1) 
de Laszlo, SE; Glinka, TW; Greenlee, WJ; Ball, R; Nachbar, RB; Prendergast, K

>  <Institution>  (1) 
TBA

>  <Link to Ligand in BindingDB>  (1) 
http://www.bindingdb.org/bind/chemsearch/marvin/MolStructure.jsp?monomerid=50289166

>  <Link to Ligand-Target Pair in BindingDB>  (1) 
http://www.bindingdb.org/jsp/dbsearch/PrimarySearch_ki.jsp?energyterm=kJ/mole&tag=r21&monomerid=50289166&enzyme=Type-1+angiotensin+II+receptor&column=ki&startPg=0&Increment=50&submit=Search

>  <Ligand HET ID in PDB>  (1) 


>  <PDB ID(s) for Ligand-Target Complex>  (1) 


>  <PubChem CID of Ligand>  (1) 
44385182

>  <PubChem SID of Ligand>  (1) 
104130737

>  <ChEBI ID of Ligand>  (1) 


>  <ChEMBL ID of Ligand>  (1) 
CHEMBL176473

>  <DrugBank ID of Ligand>  (1) 


>  <IUPHAR_GRAC ID of Ligand>  (1) 


>  <KEGG ID of Ligand>  (1) 


>  <ZINC ID of Ligand>  (1) 
ZINC28088817

>  <Number of Protein Chains in Target (bigger than 1 implies a multichain complex)>  (1) 
1

>  <BindingDB Target Chain Sequence>  (1) 
MMLNSSTEDGIKRIQDDCPKAGRHNYIFVMIPTLYSIIFVVGIFGNSLAVIVIYFYMKLKTVASVFLLNLALADLCFLLTLPLWAVYTAMEYRWPFGNYLCKIASASVSFNLYASVFLLTCLSIDRYLAIVHPMKSRLRRTMLVAKVTCIIIWLLAGLASLPAIIHRNVFFIENTNITVCAFHYESQNSTLPIGLGLTKNILGFLFPFLIILTSYTLIWKALKKAYEIQKNKPRNDDIFKIIMAIVLFFFFSWVPHQIFTFLDVLIQLGVIHDCRIADIVDTAMPITICIAYFNNCLNPLFYGFLGKKFKKYFLQLLKYIPPKAKSHSNLSTKMSTLSYRPSDNVSSSSKKPVPCFEVE

>  <PDB ID(s) of Target Chain>  (1) 
6DO1,6OS0,6OS1,6OS2

>  <UniProt (SwissProt) Recommended Name of Target Chain>  (1) 
Type-1 angiotensin II receptor

>  <UniProt (SwissProt) Entry Name of Target Chain>  (1) 
AGTR1_RABIT

>  <UniProt (SwissProt) Primary ID of Target Chain>  (1) 
P34976

>  <UniProt (SwissProt) Secondary ID(s) of Target Chain>  (1) 


>  <UniProt (SwissProt) Alternative ID(s) of Target Chain>  (1) 


>  <UniProt (TrEMBL) Submitted Name of Target Chain>  (1) 


>  <UniProt (TrEMBL) Entry Name of Target Chain>  (1) 


>  <UniProt (TrEMBL) Primary ID of Target Chain>  (1) 


>  <UniProt (TrEMBL) Secondary ID(s) of Target Chain>  (1) 


>  <UniProt (TrEMBL) Alternative ID(s) of Target Chain>  (1) 


$$$$
