
     RDKit          2D

 39 43  0  0  0  0  0  0  0  0999 V2000
    6.9973   -8.7567    0.0000 N   0  0  0  0  0  0  0  0  0  0  0  0
    7.6564   -9.2495    0.0000 C   0  0  0  0  0  0  0  0  0  0  0  0
    7.3985  -10.0403    0.0000 C   0  0  0  0  0  0  0  0  0  0  0  0
    6.3268   -9.2495    0.0000 N   0  0  0  0  0  0  0  0  0  0  0  0
    7.1922   -7.9658    0.0000 C   0  0  0  0  0  0  0  0  0  0  0  0
    5.8110   -7.6334    0.0000 N   0  0  0  0  0  0  0  0  0  0  0  0
    6.6076   -7.3985    0.0000 C   0  0  0  0  0  0  0  0  0  0  0  0
    6.5732  -10.0403    0.0000 C   0  0  0  0  0  0  0  0  0  0  0  0
   11.2954   -9.1865    0.0000 C   0  0  0  0  0  0  0  0  0  0  0  0
   10.8885   -7.9142    0.0000 N   0  0  0  0  0  0  0  0  0  0  0  0
   10.6306   -8.7051    0.0000 N   0  0  0  0  0  0  0  0  0  0  0  0
   11.7138   -7.9257    0.0000 N   0  0  0  0  0  0  0  0  0  0  0  0
   11.9659   -8.7051    0.0000 N   0  0  0  0  0  0  0  0  0  0  0  0
    8.4472   -8.9974    0.0000 C   0  0  0  0  0  0  0  0  0  0  0  0
   11.5762   -9.9773    0.0000 C   0  0  0  0  0  0  0  0  0  0  0  0
   11.1808  -10.6936    0.0000 C   0  0  0  0  0  0  0  0  0  0  0  0
    7.8913  -10.6994    0.0000 C   0  0  0  0  0  0  0  0  0  0  0  0
    5.2151   -7.0660    0.0000 O   0  0  0  0  0  0  0  0  0  0  0  0
    5.6105   -8.4300    0.0000 O   0  0  0  0  0  0  0  0  0  0  0  0
   10.3556  -10.6994    0.0000 C   0  0  0  0  0  0  0  0  0  0  0  0
    9.2381   -9.3928    0.0000 O   0  0  0  0  0  0  0  0  0  0  0  0
    9.9429  -11.4043    0.0000 C   0  0  0  0  0  0  0  0  0  0  0  0
    9.9372   -9.9887    0.0000 C   0  0  0  0  0  0  0  0  0  0  0  0
    8.7051  -10.6994    0.0000 C   0  0  0  0  0  0  0  0  0  0  0  0
    8.6191   -8.1893    0.0000 O   0  0  0  0  0  0  0  0  0  0  0  0
    6.7967   -6.6019    0.0000 C   0  0  0  0  0  0  0  0  0  0  0  0
    7.9830   -7.7365    0.0000 C   0  0  0  0  0  0  0  0  0  0  0  0
    9.1177   -9.9945    0.0000 C   0  0  0  0  0  0  0  0  0  0  0  0
    9.1177  -11.4157    0.0000 C   0  0  0  0  0  0  0  0  0  0  0  0
    6.0919  -10.6994    0.0000 C   0  0  0  0  0  0  0  0  0  0  0  0
   12.4014   -9.9716    0.0000 C   0  0  0  0  0  0  0  0  0  0  0  0
   11.5934  -11.4043    0.0000 C   0  0  0  0  0  0  0  0  0  0  0  0
    5.2666  -10.6994    0.0000 C   0  0  0  0  0  0  0  0  0  0  0  0
    4.8482  -11.4043    0.0000 C   0  0  0  0  0  0  0  0  0  0  0  0
    7.5876   -6.3669    0.0000 C   0  0  0  0  0  0  0  0  0  0  0  0
    8.1836   -6.9457    0.0000 C   0  0  0  0  0  0  0  0  0  0  0  0
   12.8255  -10.6822    0.0000 C   0  0  0  0  0  0  0  0  0  0  0  0
   12.4186  -11.4043    0.0000 C   0  0  0  0  0  0  0  0  0  0  0  0
    4.0230  -11.3985    0.0000 C   0  0  0  0  0  0  0  0  0  0  0  0
  2  1  1  0
  3  2  2  0
  4  1  1  0
  5  1  1  0
  6  7  1  0
  7  5  2  0
  8  4  2  0
  9 15  1  0
 10 11  1  0
 11  9  1  0
 12 13  1  0
 13  9  2  0
 14  2  1  0
 15 16  1  0
 16 20  1  0
 17  3  1  0
 18  6  1  0
 19  6  2  0
 20 22  2  0
 21 14  2  0
 22 29  1  0
 23 28  2  0
 24 17  1  0
 25 14  1  0
 26  7  1  0
 27  5  1  0
 28 24  1  0
 29 24  2  0
 30  8  1  0
 31 15  2  0
 32 16  2  0
 33 30  1  0
 34 33  1  0
 35 36  1  0
 36 27  2  0
 37 38  2  0
 38 32  1  0
 39 34  1  0
  3  8  1  0
 26 35  2  0
 20 23  1  0
 37 31  1  0
 10 12  2  0
M  CHG  2   6   1  18  -1
M  END
>  <From>  (1) 
www.bindingDB.org

>  <BindingDB Reactant_set_id>  (1) 
50061772

>  <Ligand InChI>  (1) 
InChI=1S/C28H25N7O4/c1-2-3-10-23-22(26(28(36)37)34(31-23)24-11-6-7-12-25(24)35(38)39)17-18-13-15-19(16-14-18)20-8-4-5-9-21(20)27-29-32-33-30-27/h4-9,11-16H,2-3,10,17H2,1H3,(H,36,37)(H,29,30,32,33)

>  <Ligand InChI Key>  (1) 
QBAIFEHUMQOWLP-UHFFFAOYSA-N

>  <BindingDB MonomerID>  (1) 
50042544

>  <BindingDB Ligand Name>  (1) 
5-Butyl-2-(2-nitro-phenyl)-4-[2'-(1H-tetrazol-5-yl)-biphenyl-4-ylmethyl]-2H-pyrazole-3-carboxylic acid::CHEMBL93547

>  <Target Name>  (1) 
Type-1 angiotensin II receptor

>  <Target Source Organism According to Curator or DataSource>  (1) 
Oryctolagus cuniculus

>  <Ki (nM)>  (1) 


>  <IC50 (nM)>  (1) 
 1.7

>  <Kd (nM)>  (1) 


>  <EC50 (nM)>  (1) 


>  <kon (M-1-s-1)>  (1) 


>  <koff (s-1)>  (1) 


>  <pH>  (1) 


>  <Temp C>  (1) 


>  <Curation/DataSource>  (1) 
ChEMBL

>  <Article DOI>  (1) 
10.1021/jm00075a014

>  <BindingDB Entry DOI>  (1) 
10.7270/Q25Q4V5H

>  <PMID>  (1) 
8246227

>  <PubChem AID>  (1) 


>  <Patent Number>  (1) 


>  <Authors>  (1) 
Ashton, WT; Hutchins, SM; Greenlee, WJ; Doss, GA; Chang, RS; Lotti, VJ; Faust, KA; Chen, TB; Zingaro, GJ; Kivlighn, SD

>  <Institution>  (1) 
Merck Research Laboratories

>  <Link to Ligand in BindingDB>  (1) 
http://www.bindingdb.org/bind/chemsearch/marvin/MolStructure.jsp?monomerid=50042544

>  <Link to Ligand-Target Pair in BindingDB>  (1) 
http://www.bindingdb.org/jsp/dbsearch/PrimarySearch_ki.jsp?energyterm=kJ/mole&tag=r21&monomerid=50042544&enzyme=Type-1+angiotensin+II+receptor&column=ki&startPg=0&Increment=50&submit=Search

>  <Ligand HET ID in PDB>  (1) 


>  <PDB ID(s) for Ligand-Target Complex>  (1) 


>  <PubChem CID of Ligand>  (1) 
14971707

>  <PubChem SID of Ligand>  (1) 
103974140

>  <ChEBI ID of Ligand>  (1) 


>  <ChEMBL ID of Ligand>  (1) 
CHEMBL93547

>  <DrugBank ID of Ligand>  (1) 


>  <IUPHAR_GRAC ID of Ligand>  (1) 


>  <KEGG ID of Ligand>  (1) 


>  <ZINC ID of Ligand>  (1) 
ZINC13833913

>  <Number of Protein Chains in Target (bigger than 1 implies a multichain complex)>  (1) 
1

>  <BindingDB Target Chain Sequence>  (1) 
MMLNSSTEDGIKRIQDDCPKAGRHNYIFVMIPTLYSIIFVVGIFGNSLAVIVIYFYMKLKTVASVFLLNLALADLCFLLTLPLWAVYTAMEYRWPFGNYLCKIASASVSFNLYASVFLLTCLSIDRYLAIVHPMKSRLRRTMLVAKVTCIIIWLLAGLASLPAIIHRNVFFIENTNITVCAFHYESQNSTLPIGLGLTKNILGFLFPFLIILTSYTLIWKALKKAYEIQKNKPRNDDIFKIIMAIVLFFFFSWVPHQIFTFLDVLIQLGVIHDCRIADIVDTAMPITICIAYFNNCLNPLFYGFLGKKFKKYFLQLLKYIPPKAKSHSNLSTKMSTLSYRPSDNVSSSSKKPVPCFEVE

>  <PDB ID(s) of Target Chain>  (1) 
6DO1,6OS0,6OS1,6OS2

>  <UniProt (SwissProt) Recommended Name of Target Chain>  (1) 
Type-1 angiotensin II receptor

>  <UniProt (SwissProt) Entry Name of Target Chain>  (1) 
AGTR1_RABIT

>  <UniProt (SwissProt) Primary ID of Target Chain>  (1) 
P34976

>  <UniProt (SwissProt) Secondary ID(s) of Target Chain>  (1) 


>  <UniProt (SwissProt) Alternative ID(s) of Target Chain>  (1) 


>  <UniProt (TrEMBL) Submitted Name of Target Chain>  (1) 


>  <UniProt (TrEMBL) Entry Name of Target Chain>  (1) 


>  <UniProt (TrEMBL) Primary ID of Target Chain>  (1) 


>  <UniProt (TrEMBL) Secondary ID(s) of Target Chain>  (1) 


>  <UniProt (TrEMBL) Alternative ID(s) of Target Chain>  (1) 


$$$$
