
     RDKit          2D

 31 34  0  0  0  0  0  0  0  0999 V2000
    4.6781    1.3243    0.0000 N   0  0  0  0  0  0  0  0  0  0  0  0
    4.4201    2.1097    0.0000 C   0  0  0  0  0  0  0  0  0  0  0  0
    4.0131    0.8370    0.0000 C   0  0  0  0  0  0  0  0  0  0  0  0
    3.5946    2.0983    0.0000 N   0  0  0  0  0  0  0  0  0  0  0  0
    5.4751    1.1638    0.0000 N   0  0  0  0  0  0  0  0  0  0  0  0
    3.3424    1.3185    0.0000 C   0  0  0  0  0  0  0  0  0  0  0  0
    4.9591    2.7174    0.0000 C   0  0  0  0  0  0  0  0  0  0  0  0
    5.7674    2.5569    0.0000 C   0  0  0  0  0  0  0  0  0  0  0  0
    6.0254    1.7715    0.0000 C   0  0  0  0  0  0  0  0  0  0  0  0
    1.1581   -2.4767    0.0000 C   0  0  0  0  0  0  0  0  0  0  0  0
    1.8747   -2.8894    0.0000 C   0  0  0  0  0  0  0  0  0  0  0  0
    4.0131    0.0114    0.0000 C   0  0  0  0  0  0  0  0  0  0  0  0
    1.1581   -1.6511    0.0000 O   0  0  0  0  0  0  0  0  0  0  0  0
    2.5856   -2.4767    0.0000 O   0  0  0  0  0  0  0  0  0  0  0  0
    0.4472   -2.8894    0.0000 C   0  0  0  0  0  0  0  0  0  0  0  0
    1.8805   -1.2383    0.0000 C   0  0  0  0  0  0  0  0  0  0  0  0
    3.3080   -0.4014    0.0000 C   0  0  0  0  0  0  0  0  0  0  0  0
    1.8747   -3.7150    0.0000 O   0  0  0  0  0  0  0  0  0  0  0  0
    2.5627    1.0606    0.0000 C   0  0  0  0  0  0  0  0  0  0  0  0
    4.7011    3.5028    0.0000 C   0  0  0  0  0  0  0  0  0  0  0  0
    2.5856   -1.6511    0.0000 C   0  0  0  0  0  0  0  0  0  0  0  0
    1.8805   -0.4128    0.0000 C   0  0  0  0  0  0  0  0  0  0  0  0
    3.3080   -1.2383    0.0000 C   0  0  0  0  0  0  0  0  0  0  0  0
    2.5856    0.0114    0.0000 C   0  0  0  0  0  0  0  0  0  0  0  0
    6.8338    1.6109    0.0000 C   0  0  0  0  0  0  0  0  0  0  0  0
    0.4472   -3.7036    0.0000 C   0  0  0  0  0  0  0  0  0  0  0  0
   -0.2694   -2.4652    0.0000 C   0  0  0  0  0  0  0  0  0  0  0  0
    1.9435    1.5995    0.0000 C   0  0  0  0  0  0  0  0  0  0  0  0
   -0.2694   -4.1163    0.0000 C   0  0  0  0  0  0  0  0  0  0  0  0
   -0.9803   -2.8780    0.0000 C   0  0  0  0  0  0  0  0  0  0  0  0
   -0.9803   -3.7036    0.0000 C   0  0  0  0  0  0  0  0  0  0  0  0
  2  1  1  0
  3  1  1  0
  4  2  2  0
  5  1  1  0
  6  3  2  0
  7  2  1  0
  8  9  1  0
  9  5  2  0
 10 13  1  0
 11 10  1  0
 12  3  1  0
 13 16  1  0
 14 11  2  0
 15 10  1  0
 16 22  2  0
 17 12  1  0
 18 11  1  0
 19  6  1  0
 20  7  1  0
 21 23  2  0
 22 24  1  0
 23 17  1  0
 24 17  2  0
 25  9  1  0
 26 15  2  0
 27 15  1  0
 28 19  1  0
 29 26  1  0
 30 27  2  0
 31 30  1  0
  4  6  1  0
  8  7  2  0
 16 21  1  0
 31 29  2  0
M  END
>  <From>  (1) 
www.bindingDB.org

>  <BindingDB Reactant_set_id>  (1) 
50003607

>  <Ligand InChI>  (1) 
InChI=1S/C25H25N3O3/c1-4-21-22(28-24(26-21)16(2)14-17(3)27-28)15-18-10-12-20(13-11-18)31-23(25(29)30)19-8-6-5-7-9-19/h5-14,23H,4,15H2,1-3H3,(H,29,30)

>  <Ligand InChI Key>  (1) 
SLJYWTLSAGYJBD-UHFFFAOYSA-N

>  <BindingDB MonomerID>  (1) 
50284443

>  <BindingDB Ligand Name>  (1) 
CHEMBL280456::[4-(2-Ethyl-6,8-dimethyl-imidazo[1,2-b]pyridazin-3-ylmethyl)-phenoxy]-phenyl-acetic acid

>  <Target Name>  (1) 
Type-1 angiotensin II receptor

>  <Target Source Organism According to Curator or DataSource>  (1) 
Oryctolagus cuniculus

>  <Ki (nM)>  (1) 


>  <IC50 (nM)>  (1) 
 69

>  <Kd (nM)>  (1) 


>  <EC50 (nM)>  (1) 


>  <kon (M-1-s-1)>  (1) 


>  <koff (s-1)>  (1) 


>  <pH>  (1) 


>  <Temp C>  (1) 


>  <Curation/DataSource>  (1) 
ChEMBL

>  <Article DOI>  (1) 
10.1016/0960-894X(95)00185-V

>  <BindingDB Entry DOI>  (1) 
10.7270/Q2J67GV9

>  <PMID>  (1) 


>  <PubChem AID>  (1) 


>  <Patent Number>  (1) 


>  <Authors>  (1) 
Walsh, TF; Fitch, KJ; Chang, RS; Faust, KA; Chen, TB; Kivlighn, SD; Zingaro, GJ; Lotti, VJ; Siegl, PK; Patchett, AA; Greenlee, WJ

>  <Institution>  (1) 
TBA

>  <Link to Ligand in BindingDB>  (1) 
http://www.bindingdb.org/bind/chemsearch/marvin/MolStructure.jsp?monomerid=50284443

>  <Link to Ligand-Target Pair in BindingDB>  (1) 
http://www.bindingdb.org/jsp/dbsearch/PrimarySearch_ki.jsp?energyterm=kJ/mole&tag=r21&monomerid=50284443&enzyme=Type-1+angiotensin+II+receptor&column=ki&startPg=0&Increment=50&submit=Search

>  <Ligand HET ID in PDB>  (1) 


>  <PDB ID(s) for Ligand-Target Complex>  (1) 


>  <PubChem CID of Ligand>  (1) 
44270285

>  <PubChem SID of Ligand>  (1) 
104126100

>  <ChEBI ID of Ligand>  (1) 


>  <ChEMBL ID of Ligand>  (1) 
CHEMBL280456

>  <DrugBank ID of Ligand>  (1) 


>  <IUPHAR_GRAC ID of Ligand>  (1) 


>  <KEGG ID of Ligand>  (1) 


>  <ZINC ID of Ligand>  (1) 
ZINC36175942

>  <Number of Protein Chains in Target (bigger than 1 implies a multichain complex)>  (1) 
1

>  <BindingDB Target Chain Sequence>  (1) 
MMLNSSTEDGIKRIQDDCPKAGRHNYIFVMIPTLYSIIFVVGIFGNSLAVIVIYFYMKLKTVASVFLLNLALADLCFLLTLPLWAVYTAMEYRWPFGNYLCKIASASVSFNLYASVFLLTCLSIDRYLAIVHPMKSRLRRTMLVAKVTCIIIWLLAGLASLPAIIHRNVFFIENTNITVCAFHYESQNSTLPIGLGLTKNILGFLFPFLIILTSYTLIWKALKKAYEIQKNKPRNDDIFKIIMAIVLFFFFSWVPHQIFTFLDVLIQLGVIHDCRIADIVDTAMPITICIAYFNNCLNPLFYGFLGKKFKKYFLQLLKYIPPKAKSHSNLSTKMSTLSYRPSDNVSSSSKKPVPCFEVE

>  <PDB ID(s) of Target Chain>  (1) 
6DO1,6OS0,6OS1,6OS2

>  <UniProt (SwissProt) Recommended Name of Target Chain>  (1) 
Type-1 angiotensin II receptor

>  <UniProt (SwissProt) Entry Name of Target Chain>  (1) 
AGTR1_RABIT

>  <UniProt (SwissProt) Primary ID of Target Chain>  (1) 
P34976

>  <UniProt (SwissProt) Secondary ID(s) of Target Chain>  (1) 


>  <UniProt (SwissProt) Alternative ID(s) of Target Chain>  (1) 


>  <UniProt (TrEMBL) Submitted Name of Target Chain>  (1) 


>  <UniProt (TrEMBL) Entry Name of Target Chain>  (1) 


>  <UniProt (TrEMBL) Primary ID of Target Chain>  (1) 


>  <UniProt (TrEMBL) Secondary ID(s) of Target Chain>  (1) 


>  <UniProt (TrEMBL) Alternative ID(s) of Target Chain>  (1) 


$$$$
