
     RDKit          2D

 39 43  0  0  0  0  0  0  0  0999 V2000
   17.6328   -8.0452    0.0000 N   0  0  0  0  0  0  0  0  0  0  0  0
   18.3446   -7.6336    0.0000 C   0  0  0  0  0  0  0  0  0  0  0  0
   19.0524   -8.0452    0.0000 C   0  0  0  0  0  0  0  0  0  0  0  0
   19.0524   -8.8643    0.0000 C   0  0  0  0  0  0  0  0  0  0  0  0
   18.3446   -9.2718    0.0000 N   0  0  0  0  0  0  0  0  0  0  0  0
   17.6328   -8.8643    0.0000 C   0  0  0  0  0  0  0  0  0  0  0  0
   16.9253   -9.2716    0.0000 C   0  0  0  0  0  0  0  0  0  0  0  0
   16.2179   -8.8643    0.0000 C   0  0  0  0  0  0  0  0  0  0  0  0
   15.5063   -9.2716    0.0000 C   0  0  0  0  0  0  0  0  0  0  0  0
   14.7989   -8.8643    0.0000 C   0  0  0  0  0  0  0  0  0  0  0  0
   18.3446  -10.0905    0.0000 C   0  0  0  0  0  0  0  0  0  0  0  0
   19.0521  -10.4978    0.0000 C   0  0  0  0  0  0  0  0  0  0  0  0
   19.0521  -11.3174    0.0000 C   0  0  0  0  0  0  0  0  0  0  0  0
   19.7546  -11.7260    0.0000 C   0  0  0  0  0  0  0  0  0  0  0  0
   20.4636  -11.3174    0.0000 C   0  0  0  0  0  0  0  0  0  0  0  0
   20.4636  -10.4978    0.0000 C   0  0  0  0  0  0  0  0  0  0  0  0
   19.7546  -10.0870    0.0000 C   0  0  0  0  0  0  0  0  0  0  0  0
   21.1752  -11.7288    0.0000 C   0  0  0  0  0  0  0  0  0  0  0  0
   21.1752  -12.5443    0.0000 C   0  0  0  0  0  0  0  0  0  0  0  0
   21.8818  -12.9529    0.0000 C   0  0  0  0  0  0  0  0  0  0  0  0
   22.5908  -12.5443    0.0000 C   0  0  0  0  0  0  0  0  0  0  0  0
   22.5908  -11.7288    0.0000 C   0  0  0  0  0  0  0  0  0  0  0  0
   21.8818  -11.3138    0.0000 C   0  0  0  0  0  0  0  0  0  0  0  0
   21.8818  -10.4992    0.0000 C   0  0  0  0  0  0  0  0  0  0  0  0
   21.2167  -10.0185    0.0000 N   0  0  0  0  0  0  0  0  0  0  0  0
   21.4706   -9.2369    0.0000 O   0  0  0  0  0  0  0  0  0  0  0  0
   22.2888   -9.2369    0.0000 C   0  0  0  0  0  0  0  0  0  0  0  0
   22.5427  -10.0185    0.0000 N   0  0  0  0  0  0  0  0  0  0  0  0
   22.6961   -8.5294    0.0000 O   0  0  0  0  0  0  0  0  0  0  0  0
   19.7598   -9.2716    0.0000 O   0  0  0  0  0  0  0  0  0  0  0  0
   19.7598   -7.6338    0.0000 C   0  0  0  0  0  0  0  0  0  0  0  0
   20.4672   -8.0452    0.0000 C   0  0  0  0  0  0  0  0  0  0  0  0
   21.1788   -7.6338    0.0000 N   0  0  0  0  0  0  0  0  0  0  0  0
   21.2638   -6.8221    0.0000 C   0  0  0  0  0  0  0  0  0  0  0  0
   22.0606   -6.6491    0.0000 C   0  0  0  0  0  0  0  0  0  0  0  0
   22.4718   -7.3602    0.0000 C   0  0  0  0  0  0  0  0  0  0  0  0
   21.9247   -7.9689    0.0000 C   0  0  0  0  0  0  0  0  0  0  0  0
   20.4672   -8.8639    0.0000 S   0  0  0  0  0  0  0  0  0  0  0  0
   18.3446   -6.8148    0.0000 C   0  0  0  0  0  0  0  0  0  0  0  0
  1  2  1  0
  3  2  2  0
  4  3  1  0
  5  4  1  0
  6  5  1  0
  1  6  2  0
  6  7  1  0
  7  8  1  0
  8  9  1  0
  9 10  1  0
  5 11  1  0
 11 12  1  0
 12 13  2  0
 13 14  1  0
 14 15  2  0
 15 16  1  0
 16 17  2  0
 12 17  1  0
 15 18  1  0
 18 19  2  0
 19 20  1  0
 20 21  2  0
 21 22  1  0
 22 23  2  0
 18 23  1  0
 23 24  1  0
 25 24  2  0
 25 26  1  0
 26 27  1  0
 27 28  1  0
 28 24  1  0
 27 29  2  0
  4 30  2  0
  3 31  1  0
 31 32  1  0
 32 33  1  0
 34 33  1  0
 34 35  1  0
 35 36  1  0
 36 37  1  0
 37 33  1  0
 32 38  2  0
  2 39  1  0
M  END
>  <From>  (1) 
www.bindingDB.org

>  <BindingDB Reactant_set_id>  (1) 
51139683

>  <Ligand InChI>  (1) 
InChI=1S/C30H33N5O3S/c1-3-4-11-26-31-20(2)25(18-27(39)34-16-7-8-17-34)29(36)35(26)19-21-12-14-22(15-13-21)23-9-5-6-10-24(23)28-32-30(37)38-33-28/h5-6,9-10,12-15H,3-4,7-8,11,16-19H2,1-2H3,(H,32,33,37)

>  <Ligand InChI Key>  (1) 
TYPTZNHQYFDPOU-UHFFFAOYSA-N

>  <BindingDB MonomerID>  (1) 
50467129

>  <BindingDB Ligand Name>  (1) 
CHEMBL4278280

>  <Target Name>  (1) 
Type-1 angiotensin II receptor

>  <Target Source Organism According to Curator or DataSource>  (1) 
Homo sapiens

>  <Ki (nM)>  (1) 


>  <IC50 (nM)>  (1) 
 0.700000

>  <Kd (nM)>  (1) 


>  <EC50 (nM)>  (1) 


>  <kon (M-1-s-1)>  (1) 


>  <koff (s-1)>  (1) 


>  <pH>  (1) 


>  <Temp C>  (1) 


>  <Curation/DataSource>  (1) 
ChEMBL

>  <Article DOI>  (1) 
10.1016/j.bmcl.2018.08.036

>  <BindingDB Entry DOI>  (1) 
10.7270/Q2X63QMZ

>  <PMID>  (1) 
30177375

>  <PubChem AID>  (1) 


>  <Patent Number>  (1) 


>  <Authors>  (1) 
Choung, W; Jung, HJ; Nam, EH; Yang, D; Yoo, B; Choi, H; Lee, BR; Park, M; Jang, SM; Lim, JS; Kim, KH; Chin, J; Jung, K; Lee, G; Kim, SH

>  <Institution>  (1) 
Boryung Pharmaceuticals Co. Ltd.

>  <Link to Ligand in BindingDB>  (1) 
http://www.bindingdb.org/bind/chemsearch/marvin/MolStructure.jsp?monomerid=50467129

>  <Link to Ligand-Target Pair in BindingDB>  (1) 
http://www.bindingdb.org/jsp/dbsearch/PrimarySearch_ki.jsp?energyterm=kJ/mole&tag=r21&monomerid=50467129&enzyme=Type-1+angiotensin+II+receptor&column=ki&startPg=0&Increment=50&submit=Search

>  <Ligand HET ID in PDB>  (1) 


>  <PDB ID(s) for Ligand-Target Complex>  (1) 


>  <PubChem CID of Ligand>  (1) 
142534045

>  <PubChem SID of Ligand>  (1) 
433934394

>  <ChEBI ID of Ligand>  (1) 


>  <ChEMBL ID of Ligand>  (1) 


>  <DrugBank ID of Ligand>  (1) 


>  <IUPHAR_GRAC ID of Ligand>  (1) 


>  <KEGG ID of Ligand>  (1) 


>  <ZINC ID of Ligand>  (1) 


>  <Number of Protein Chains in Target (bigger than 1 implies a multichain complex)>  (1) 
1

>  <BindingDB Target Chain Sequence>  (1) 
MILNSSTEDGIKRIQDDCPKAGRHNYIFVMIPTLYSIIFVVGIFGNSLVVIVIYFYMKLKTVASVFLLNLALADLCFLLTLPLWAVYTAMEYRWPFGNYLCKIASASVSFNLYASVFLLTCLSIDRYLAIVHPMKSRLRRTMLVAKVTCIIIWLLAGLASLPAIIHRNVFFIENTNITVCAFHYESQNSTLPIGLGLTKNILGFLFPFLIILTSYTLIWKALKKAYEIQKNKPRNDDIFKIIMAIVLFFFFSWIPHQIFTFLDVLIQLGIIRDCRIADIVDTAMPITICIAYFNNCLNPLFYGFLGKKFKRYFLQLLKYIPPKAKSHSNLSTKMSTLSYRPSDNVSSSTKKPAPCFEVE

>  <PDB ID(s) of Target Chain>  (1) 
6DO1,6OS0,6OS1,6OS2

>  <UniProt (SwissProt) Recommended Name of Target Chain>  (1) 
Type-1 angiotensin II receptor

>  <UniProt (SwissProt) Entry Name of Target Chain>  (1) 
AGTR1_HUMAN

>  <UniProt (SwissProt) Primary ID of Target Chain>  (1) 
P30556

>  <UniProt (SwissProt) Secondary ID(s) of Target Chain>  (1) 
Q13725 Q8TBK4

>  <UniProt (SwissProt) Alternative ID(s) of Target Chain>  (1) 


>  <UniProt (TrEMBL) Submitted Name of Target Chain>  (1) 


>  <UniProt (TrEMBL) Entry Name of Target Chain>  (1) 


>  <UniProt (TrEMBL) Primary ID of Target Chain>  (1) 


>  <UniProt (TrEMBL) Secondary ID(s) of Target Chain>  (1) 


>  <UniProt (TrEMBL) Alternative ID(s) of Target Chain>  (1) 


$$$$
