
     RDKit          2D

 37 41  0  0  0  0  0  0  0  0999 V2000
    2.3602   -1.9134    0.0000 N   0  0  0  0  0  0  0  0  0  0  0  0
    2.4290   -0.5729    0.0000 N   0  0  0  0  0  0  0  0  0  0  0  0
    2.8758   -1.2718    0.0000 C   0  0  0  0  0  0  0  0  0  0  0  0
    1.5869   -1.6212    0.0000 C   0  0  0  0  0  0  0  0  0  0  0  0
    5.9177   -3.1508    0.0000 C   0  0  0  0  0  0  0  0  0  0  0  0
    5.4995   -1.8962    0.0000 N   0  0  0  0  0  0  0  0  0  0  0  0
    5.2475   -2.6696    0.0000 N   0  0  0  0  0  0  0  0  0  0  0  0
    6.3130   -1.8790    0.0000 N   0  0  0  0  0  0  0  0  0  0  0  0
   -1.2660   -1.4838    0.0000 C   0  0  0  0  0  0  0  0  0  0  0  0
    1.6327   -0.7963    0.0000 C   0  0  0  0  0  0  0  0  0  0  0  0
    6.5822   -2.6696    0.0000 N   0  0  0  0  0  0  0  0  0  0  0  0
    5.9291   -3.9757    0.0000 C   0  0  0  0  0  0  0  0  0  0  0  0
    5.2131   -4.3882    0.0000 C   0  0  0  0  0  0  0  0  0  0  0  0
   -0.5614   -1.9306    0.0000 N   0  0  0  0  0  0  0  0  0  0  0  0
    0.8593   -1.9993    0.0000 C   0  0  0  0  0  0  0  0  0  0  0  0
    2.3602   -2.7383    0.0000 C   0  0  0  0  0  0  0  0  0  0  0  0
   -1.9878   -1.8618    0.0000 N   0  0  0  0  0  0  0  0  0  0  0  0
    0.1719   -1.5525    0.0000 C   0  0  0  0  0  0  0  0  0  0  0  0
    4.5027   -3.9757    0.0000 C   0  0  0  0  0  0  0  0  0  0  0  0
   -1.2202   -0.6588    0.0000 O   0  0  0  0  0  0  0  0  0  0  0  0
    0.9338   -0.3495    0.0000 C   0  0  0  0  0  0  0  0  0  0  0  0
    4.5027   -3.1508    0.0000 C   0  0  0  0  0  0  0  0  0  0  0  0
    3.7867   -4.3882    0.0000 C   0  0  0  0  0  0  0  0  0  0  0  0
    3.0763   -3.1508    0.0000 C   0  0  0  0  0  0  0  0  0  0  0  0
    0.2062   -0.7276    0.0000 C   0  0  0  0  0  0  0  0  0  0  0  0
    3.7007   -1.3119    0.0000 C   0  0  0  0  0  0  0  0  0  0  0  0
    3.7867   -2.7383    0.0000 C   0  0  0  0  0  0  0  0  0  0  0  0
    3.0763   -3.9757    0.0000 C   0  0  0  0  0  0  0  0  0  0  0  0
    6.6395   -4.3824    0.0000 C   0  0  0  0  0  0  0  0  0  0  0  0
    5.2131   -5.2131    0.0000 C   0  0  0  0  0  0  0  0  0  0  0  0
   -2.6924   -1.4264    0.0000 C   0  0  0  0  0  0  0  0  0  0  0  0
   -2.0279   -2.6868    0.0000 C   0  0  0  0  0  0  0  0  0  0  0  0
    4.1476   -0.6187    0.0000 C   0  0  0  0  0  0  0  0  0  0  0  0
    4.9725   -0.6588    0.0000 C   0  0  0  0  0  0  0  0  0  0  0  0
    6.6509   -5.2131    0.0000 C   0  0  0  0  0  0  0  0  0  0  0  0
    5.9349   -5.6255    0.0000 C   0  0  0  0  0  0  0  0  0  0  0  0
    5.4193    0.0344    0.0000 C   0  0  0  0  0  0  0  0  0  0  0  0
  2  3  2  0
  3  1  1  0
  4  1  1  0
  5 12  1  0
  6  7  1  0
  7  5  1  0
  8 11  1  0
  9 14  1  0
 10  4  2  0
 11  5  2  0
 12 13  1  0
 13 19  1  0
 14 18  1  0
 15  4  1  0
 16  1  1  0
 17  9  1  0
 18 15  2  0
 19 23  2  0
 20  9  2  0
 21 10  1  0
 22 27  2  0
 23 28  1  0
 24 16  1  0
 25 18  1  0
 26  3  1  0
 27 24  1  0
 28 24  2  0
 29 12  2  0
 30 13  2  0
 31 17  1  0
 32 17  1  0
 33 26  1  0
 34 33  1  0
 35 36  2  0
 36 30  1  0
 37 34  1  0
 10  2  1  0
 19 22  1  0
 25 21  2  0
 35 29  1  0
  6  8  2  0
M  END
>  <From>  (1) 
www.bindingDB.org

>  <BindingDB Reactant_set_id>  (1) 
50069214

>  <Ligand InChI>  (1) 
InChI=1S/C28H30N8O/c1-4-5-10-26-30-24-16-15-21(29-28(37)35(2)3)17-25(24)36(26)18-19-11-13-20(14-12-19)22-8-6-7-9-23(22)27-31-33-34-32-27/h6-9,11-17H,4-5,10,18H2,1-3H3,(H,29,37)(H,31,32,33,34)

>  <Ligand InChI Key>  (1) 
BZCOMIFWYBGIRV-UHFFFAOYSA-N

>  <BindingDB MonomerID>  (1) 
50043248

>  <BindingDB Ligand Name>  (1) 
3-{2-Butyl-3-[2'-(1H-tetrazol-5-yl)-biphenyl-4-ylmethyl]-3H-benzoimidazol-5-yl}-1,1-dimethyl-urea::CHEMBL130746

>  <Target Name>  (1) 
Type-1 angiotensin II receptor B

>  <Target Source Organism According to Curator or DataSource>  (1) 
Rattus

>  <Ki (nM)>  (1) 


>  <IC50 (nM)>  (1) 
 8

>  <Kd (nM)>  (1) 


>  <EC50 (nM)>  (1) 


>  <kon (M-1-s-1)>  (1) 


>  <koff (s-1)>  (1) 


>  <pH>  (1) 


>  <Temp C>  (1) 


>  <Curation/DataSource>  (1) 
ChEMBL

>  <Article DOI>  (1) 
10.1021/jm00077a007

>  <BindingDB Entry DOI>  (1) 
10.7270/Q2V98746

>  <PMID>  (1) 
8258826

>  <PubChem AID>  (1) 


>  <Patent Number>  (1) 


>  <Authors>  (1) 
Ries, UJ; Mihm, G; Narr, B; Hasselbach, KM; Wittneben, H; Entzeroth, M; van Meel, JC; Wienen, W; Hauel, NH

>  <Institution>  (1) 
Dr. Karl Thomae GmbH

>  <Link to Ligand in BindingDB>  (1) 
http://www.bindingdb.org/bind/chemsearch/marvin/MolStructure.jsp?monomerid=50043248

>  <Link to Ligand-Target Pair in BindingDB>  (1) 
http://www.bindingdb.org/jsp/dbsearch/PrimarySearch_ki.jsp?energyterm=kJ/mole&tag=r21&monomerid=50043248&enzyme=Type-1+angiotensin+II+receptor+B&column=ki&startPg=0&Increment=50&submit=Search

>  <Ligand HET ID in PDB>  (1) 


>  <PDB ID(s) for Ligand-Target Complex>  (1) 


>  <PubChem CID of Ligand>  (1) 
10345638

>  <PubChem SID of Ligand>  (1) 
103974717

>  <ChEBI ID of Ligand>  (1) 


>  <ChEMBL ID of Ligand>  (1) 
CHEMBL130746

>  <DrugBank ID of Ligand>  (1) 


>  <IUPHAR_GRAC ID of Ligand>  (1) 


>  <KEGG ID of Ligand>  (1) 


>  <ZINC ID of Ligand>  (1) 
ZINC13732068

>  <Number of Protein Chains in Target (bigger than 1 implies a multichain complex)>  (1) 
1

>  <BindingDB Target Chain Sequence>  (1) 
MTLNSSTEDGIKRIQDDCPKAGRHNYIFVMIPTLYSIIFVVGIFGNSLVVIVIYFYMKLKTVASVFLLNLALADLCFLLTLPLWAVYTAMEYRWPFGNHLCKIASASVSFNLYASVFLLTCLSIDRYLAIVHPMKSRLRRTMLVAKVTCIIIWLMAGLASLPAVIYRNVYFIENTNITVCAFHYESQNSTLPIGLGLTKNILGFVFPFLIILTSYTLIWKALKKAYKIQKNTPRNDDIFRIIMAIVLFFFFSWVPHQIFTFLDVLIQLGIIRDCEIADIVDTAMPITICIAYFNNCLNPLFYGFLGKKFKKYFLQLLKYIPPTAKSHAGLSTKMSTLSYRPSDNMSSSAKKSASFFEVE

>  <PDB ID(s) of Target Chain>  (1) 


>  <UniProt (SwissProt) Recommended Name of Target Chain>  (1) 
Type-1 angiotensin II receptor B

>  <UniProt (SwissProt) Entry Name of Target Chain>  (1) 
AGTRB_RAT

>  <UniProt (SwissProt) Primary ID of Target Chain>  (1) 
P29089

>  <UniProt (SwissProt) Secondary ID(s) of Target Chain>  (1) 


>  <UniProt (SwissProt) Alternative ID(s) of Target Chain>  (1) 


>  <UniProt (TrEMBL) Submitted Name of Target Chain>  (1) 


>  <UniProt (TrEMBL) Entry Name of Target Chain>  (1) 


>  <UniProt (TrEMBL) Primary ID of Target Chain>  (1) 


>  <UniProt (TrEMBL) Secondary ID(s) of Target Chain>  (1) 


>  <UniProt (TrEMBL) Alternative ID(s) of Target Chain>  (1) 


$$$$
