
     RDKit          2D

 43 48  0  0  0  0  0  0  0  0999 V2000
    4.3112   -3.3190    0.0000 N   0  0  0  0  0  0  0  0  0  0  0  0
    7.9346   -4.7365    0.0000 N   0  0  0  0  0  0  0  0  0  0  0  0
    7.2257   -4.3154    0.0000 N   0  0  0  0  0  0  0  0  0  0  0  0
    4.3112   -1.9806    0.0000 N   0  0  0  0  0  0  0  0  0  0  0  0
    3.8234   -2.6518    0.0000 C   0  0  0  0  0  0  0  0  0  0  0  0
    5.0952   -3.0688    0.0000 C   0  0  0  0  0  0  0  0  0  0  0  0
    5.0367   -7.5635    0.0000 C   0  0  0  0  0  0  0  0  0  0  0  0
    4.4447   -6.9965    0.0000 N   0  0  0  0  0  0  0  0  0  0  0  0
    3.7108   -7.3758    0.0000 N   0  0  0  0  0  0  0  0  0  0  0  0
    7.9221   -5.5621    0.0000 C   0  0  0  0  0  0  0  0  0  0  0  0
    4.6699   -8.3099    0.0000 N   0  0  0  0  0  0  0  0  0  0  0  0
    5.0993   -2.2432    0.0000 C   0  0  0  0  0  0  0  0  0  0  0  0
    3.8484   -8.1889    0.0000 N   0  0  0  0  0  0  0  0  0  0  0  0
    8.6267   -5.9874    0.0000 C   0  0  0  0  0  0  0  0  0  0  0  0
    8.6517   -4.3322    0.0000 C   0  0  0  0  0  0  0  0  0  0  0  0
    7.2382   -3.4816    0.0000 C   0  0  0  0  0  0  0  0  0  0  0  0
    5.8498   -7.4259    0.0000 C   0  0  0  0  0  0  0  0  0  0  0  0
    5.8123   -3.4816    0.0000 C   0  0  0  0  0  0  0  0  0  0  0  0
    6.1500   -6.6587    0.0000 C   0  0  0  0  0  0  0  0  0  0  0  0
    6.5253   -3.0688    0.0000 C   0  0  0  0  0  0  0  0  0  0  0  0
    4.0486   -4.1028    0.0000 C   0  0  0  0  0  0  0  0  0  0  0  0
    8.6142   -6.8129    0.0000 N   0  0  0  0  0  0  0  0  0  0  0  0
    5.6330   -6.0124    0.0000 C   0  0  0  0  0  0  0  0  0  0  0  0
    9.3522   -5.5871    0.0000 O   0  0  0  0  0  0  0  0  0  0  0  0
    8.6642   -3.5066    0.0000 C   0  0  0  0  0  0  0  0  0  0  0  0
    5.8123   -1.8304    0.0000 C   0  0  0  0  0  0  0  0  0  0  0  0
    9.3647   -4.7615    0.0000 O   0  0  0  0  0  0  0  0  0  0  0  0
    7.9596   -3.0813    0.0000 C   0  0  0  0  0  0  0  0  0  0  0  0
    6.5253   -2.2432    0.0000 C   0  0  0  0  0  0  0  0  0  0  0  0
    4.8116   -6.1375    0.0000 C   0  0  0  0  0  0  0  0  0  0  0  0
    5.9332   -5.2494    0.0000 C   0  0  0  0  0  0  0  0  0  0  0  0
    4.5989   -4.7240    0.0000 C   0  0  0  0  0  0  0  0  0  0  0  0
    3.0063   -2.6435    0.0000 C   0  0  0  0  0  0  0  0  0  0  0  0
    4.2987   -5.4954    0.0000 C   0  0  0  0  0  0  0  0  0  0  0  0
    5.4204   -4.5989    0.0000 C   0  0  0  0  0  0  0  0  0  0  0  0
    6.3626   -8.0722    0.0000 C   0  0  0  0  0  0  0  0  0  0  0  0
    6.9589   -6.5337    0.0000 C   0  0  0  0  0  0  0  0  0  0  0  0
    9.3272   -7.2382    0.0000 C   0  0  0  0  0  0  0  0  0  0  0  0
    7.8971   -7.2132    0.0000 C   0  0  0  0  0  0  0  0  0  0  0  0
    2.5976   -1.9305    0.0000 C   0  0  0  0  0  0  0  0  0  0  0  0
    7.1841   -7.9387    0.0000 C   0  0  0  0  0  0  0  0  0  0  0  0
    7.4759   -7.1757    0.0000 C   0  0  0  0  0  0  0  0  0  0  0  0
    1.7720   -1.9263    0.0000 C   0  0  0  0  0  0  0  0  0  0  0  0
  2  3  1  0
  3 16  2  0
  4  5  2  0
  5  1  1  0
  6  1  1  0
  7 17  1  0
  8  7  1  0
  9  8  2  0
 10  2  1  0
 11  7  2  0
 12  6  2  0
 13 11  1  0
 14 10  1  0
 15 25  1  0
 16 20  1  0
 17 19  1  0
 18  6  1  0
 19 23  1  0
 20 18  2  0
 21  1  1  0
 22 14  1  0
 23 31  2  0
 24 14  2  0
 25 28  1  0
 26 12  1  0
 27 15  2  0
 28 16  1  0
 29 20  1  0
 30 34  2  0
 31 35  1  0
 32 21  1  0
 33  5  1  0
 34 32  1  0
 35 32  2  0
 36 17  2  0
 37 19  2  0
 38 22  1  0
 39 22  1  0
 40 33  1  0
 41 42  2  0
 42 37  1  0
 43 40  1  0
  4 12  1  0
 23 30  1  0
 26 29  2  0
  2 15  1  0
 36 41  1  0
  9 13  1  0
M  CHG  1  13  -1
M  END
>  <From>  (1) 
www.bindingDB.org

>  <BindingDB Reactant_set_id>  (1) 
50983608

>  <Ligand InChI>  (1) 
InChI=1S/C32H32N9O2/c1-4-7-29-33-27-15-14-23(26-16-17-30(42)41(36-26)20-31(43)39(2)3)18-28(27)40(29)19-21-10-12-22(13-11-21)24-8-5-6-9-25(24)32-34-37-38-35-32/h5-6,8-15,18H,4,7,16-17,19-20H2,1-3H3/q-1

>  <Ligand InChI Key>  (1) 
TZCAYZICWCFSHT-UHFFFAOYSA-N

>  <BindingDB MonomerID>  (1) 
50403245

>  <BindingDB Ligand Name>  (1) 
CHEMBL2079788

>  <Target Name>  (1) 
Type-1 angiotensin II receptor

>  <Target Source Organism According to Curator or DataSource>  (1) 
Oryctolagus cuniculus

>  <Ki (nM)>  (1) 


>  <IC50 (nM)>  (1) 
 2

>  <Kd (nM)>  (1) 


>  <EC50 (nM)>  (1) 


>  <kon (M-1-s-1)>  (1) 


>  <koff (s-1)>  (1) 


>  <pH>  (1) 


>  <Temp C>  (1) 


>  <Curation/DataSource>  (1) 
ChEMBL

>  <Article DOI>  (1) 
10.1016/S0960-894X(01)80348-6

>  <BindingDB Entry DOI>  (1) 
10.7270/Q2G44QRD

>  <PMID>  (1) 


>  <PubChem AID>  (1) 


>  <Patent Number>  (1) 


>  <Authors>  (1) 
Dorsch, D; Mederski, WW; Beier, N; Lues, I; Minck, K; Schelling, P

>  <Institution>  (1) 
TBA

>  <Link to Ligand in BindingDB>  (1) 
http://www.bindingdb.org/bind/chemsearch/marvin/MolStructure.jsp?monomerid=50403245

>  <Link to Ligand-Target Pair in BindingDB>  (1) 
http://www.bindingdb.org/jsp/dbsearch/PrimarySearch_ki.jsp?energyterm=kJ/mole&tag=r21&monomerid=50403245&enzyme=Type-1+angiotensin+II+receptor&column=ki&startPg=0&Increment=50&submit=Search

>  <Ligand HET ID in PDB>  (1) 


>  <PDB ID(s) for Ligand-Target Complex>  (1) 


>  <PubChem CID of Ligand>  (1) 
91928454

>  <PubChem SID of Ligand>  (1) 
163352269

>  <ChEBI ID of Ligand>  (1) 


>  <ChEMBL ID of Ligand>  (1) 
CHEMBL2079788

>  <DrugBank ID of Ligand>  (1) 


>  <IUPHAR_GRAC ID of Ligand>  (1) 


>  <KEGG ID of Ligand>  (1) 


>  <ZINC ID of Ligand>  (1) 
ZINC28754787

>  <Number of Protein Chains in Target (bigger than 1 implies a multichain complex)>  (1) 
1

>  <BindingDB Target Chain Sequence>  (1) 
MMLNSSTEDGIKRIQDDCPKAGRHNYIFVMIPTLYSIIFVVGIFGNSLAVIVIYFYMKLKTVASVFLLNLALADLCFLLTLPLWAVYTAMEYRWPFGNYLCKIASASVSFNLYASVFLLTCLSIDRYLAIVHPMKSRLRRTMLVAKVTCIIIWLLAGLASLPAIIHRNVFFIENTNITVCAFHYESQNSTLPIGLGLTKNILGFLFPFLIILTSYTLIWKALKKAYEIQKNKPRNDDIFKIIMAIVLFFFFSWVPHQIFTFLDVLIQLGVIHDCRIADIVDTAMPITICIAYFNNCLNPLFYGFLGKKFKKYFLQLLKYIPPKAKSHSNLSTKMSTLSYRPSDNVSSSSKKPVPCFEVE

>  <PDB ID(s) of Target Chain>  (1) 
6DO1,6OS0,6OS1,6OS2

>  <UniProt (SwissProt) Recommended Name of Target Chain>  (1) 
Type-1 angiotensin II receptor

>  <UniProt (SwissProt) Entry Name of Target Chain>  (1) 
AGTR1_RABIT

>  <UniProt (SwissProt) Primary ID of Target Chain>  (1) 
P34976

>  <UniProt (SwissProt) Secondary ID(s) of Target Chain>  (1) 


>  <UniProt (SwissProt) Alternative ID(s) of Target Chain>  (1) 


>  <UniProt (TrEMBL) Submitted Name of Target Chain>  (1) 


>  <UniProt (TrEMBL) Entry Name of Target Chain>  (1) 


>  <UniProt (TrEMBL) Primary ID of Target Chain>  (1) 


>  <UniProt (TrEMBL) Secondary ID(s) of Target Chain>  (1) 


>  <UniProt (TrEMBL) Alternative ID(s) of Target Chain>  (1) 


$$$$
