
     RDKit          2D

 29 32  0  0  0  0  0  0  0  0999 V2000
    3.4402  -17.3125    0.0000 C   0  0  0  0  0  0  0  0  0  0  0  0
    3.4391  -18.1398    0.0000 C   0  0  0  0  0  0  0  0  0  0  0  0
    4.1539  -18.5527    0.0000 C   0  0  0  0  0  0  0  0  0  0  0  0
    4.1521  -16.8997    0.0000 C   0  0  0  0  0  0  0  0  0  0  0  0
    4.8675  -17.3088    0.0000 C   0  0  0  0  0  0  0  0  0  0  0  0
    4.8677  -18.1353    0.0000 C   0  0  0  0  0  0  0  0  0  0  0  0
    5.6538  -18.3904    0.0000 N   0  0  0  0  0  0  0  0  0  0  0  0
    6.1395  -17.7216    0.0000 C   0  0  0  0  0  0  0  0  0  0  0  0
    5.6534  -17.0533    0.0000 N   0  0  0  0  0  0  0  0  0  0  0  0
    4.1557  -19.3799    0.0000 C   0  0  0  0  0  0  0  0  0  0  0  0
    3.4424  -19.7943    0.0000 O   0  0  0  0  0  0  0  0  0  0  0  0
    4.8713  -19.7905    0.0000 O   0  0  0  0  0  0  0  0  0  0  0  0
    5.9090  -19.1750    0.0000 C   0  0  0  0  0  0  0  0  0  0  0  0
    6.7160  -19.3463    0.0000 C   0  0  0  0  0  0  0  0  0  0  0  0
    6.9693  -20.1321    0.0000 C   0  0  0  0  0  0  0  0  0  0  0  0
    7.7755  -20.3036    0.0000 C   0  0  0  0  0  0  0  0  0  0  0  0
    8.3283  -19.6900    0.0000 C   0  0  0  0  0  0  0  0  0  0  0  0
    8.0693  -18.9022    0.0000 C   0  0  0  0  0  0  0  0  0  0  0  0
    7.2637  -18.7344    0.0000 C   0  0  0  0  0  0  0  0  0  0  0  0
    9.1356  -19.8602    0.0000 N   0  0  0  0  0  0  0  0  0  0  0  0
    9.4732  -20.6102    0.0000 C   0  0  0  0  0  0  0  0  0  0  0  0
   10.2935  -20.5226    0.0000 C   0  0  0  0  0  0  0  0  0  0  0  0
   10.4638  -19.7153    0.0000 C   0  0  0  0  0  0  0  0  0  0  0  0
    9.7486  -19.3041    0.0000 C   0  0  0  0  0  0  0  0  0  0  0  0
    9.6613  -18.4882    0.0000 C   0  0  0  0  0  0  0  0  0  0  0  0
    6.9645  -17.7213    0.0000 C   0  0  0  0  0  0  0  0  0  0  0  0
    7.3767  -17.0067    0.0000 C   0  0  0  0  0  0  0  0  0  0  0  0
   10.3230  -18.0035    0.0000 O   0  0  0  0  0  0  0  0  0  0  0  0
    8.9098  -18.1546    0.0000 O   0  0  0  0  0  0  0  0  0  0  0  0
 13 14  1  0
  1  2  2  0
 14 15  2  0
  5  4  2  0
 15 16  1  0
  6  7  1  0
 16 17  2  0
  7  8  1  0
 17 18  1  0
  8  9  2  0
 18 19  2  0
 19 14  1  0
  9  5  1  0
 17 20  1  0
 20 21  1  0
  4  1  1  0
  5  6  1  0
 10 11  1  0
 21 22  2  0
 22 23  1  0
 23 24  2  0
 24 20  1  0
 10 12  2  0
 24 25  1  0
  3 10  1  0
  8 26  1  0
  2  3  1  0
 26 27  1  0
  7 13  1  0
  3  6  2  0
 25 28  1  0
 25 29  2  0
M  END
>  <From>  (1) 
www.bindingDB.org

>  <BindingDB Reactant_set_id>  (1) 
50381247

>  <Ligand InChI>  (1) 
InChI=1S/C22H19N3O4/c1-2-19-23-17-6-3-5-16(21(26)27)20(17)25(19)13-14-8-10-15(11-9-14)24-12-4-7-18(24)22(28)29/h3-12H,2,13H2,1H3,(H,26,27)(H,28,29)

>  <Ligand InChI Key>  (1) 
JSRRACYCGMXWCM-UHFFFAOYSA-N

>  <BindingDB MonomerID>  (1) 
50209828

>  <BindingDB Ligand Name>  (1) 
3-(4-(2-carboxy-1H-pyrrol-1-yl)benzyl)-2-ethyl-3H-benzo[d]imidazole-4-carboxylic acid::CHEMBL241529

>  <Target Name>  (1) 
Type-1 angiotensin II receptor

>  <Target Source Organism According to Curator or DataSource>  (1) 
Bos taurus

>  <Ki (nM)>  (1) 


>  <IC50 (nM)>  (1) 
 160

>  <Kd (nM)>  (1) 


>  <EC50 (nM)>  (1) 


>  <kon (M-1-s-1)>  (1) 


>  <koff (s-1)>  (1) 


>  <pH>  (1) 


>  <Temp C>  (1) 


>  <Curation/DataSource>  (1) 
ChEMBL

>  <Article DOI>  (1) 
10.1016/j.bmcl.2007.02.042

>  <BindingDB Entry DOI>  (1) 
10.7270/Q2C82908

>  <PMID>  (1) 
17412584

>  <PubChem AID>  (1) 


>  <Patent Number>  (1) 


>  <Authors>  (1) 
Xu, JY; Zeng, Y; Ran, Q; Wei, Z; Bi, Y; He, QH; Wang, QJ; Hu, S; Zhang, J; Tang, MY; Hua, WY; Wu, XM

>  <Institution>  (1) 
China Pharmaceutical University

>  <Link to Ligand in BindingDB>  (1) 
http://www.bindingdb.org/bind/chemsearch/marvin/MolStructure.jsp?monomerid=50209828

>  <Link to Ligand-Target Pair in BindingDB>  (1) 
http://www.bindingdb.org/jsp/dbsearch/PrimarySearch_ki.jsp?energyterm=kJ/mole&tag=r21&monomerid=50209828&enzyme=Type-1+angiotensin+II+receptor&column=ki&startPg=0&Increment=50&submit=Search

>  <Ligand HET ID in PDB>  (1) 


>  <PDB ID(s) for Ligand-Target Complex>  (1) 


>  <PubChem CID of Ligand>  (1) 
44438901

>  <PubChem SID of Ligand>  (1) 
104086516

>  <ChEBI ID of Ligand>  (1) 


>  <ChEMBL ID of Ligand>  (1) 
CHEMBL241529

>  <DrugBank ID of Ligand>  (1) 


>  <IUPHAR_GRAC ID of Ligand>  (1) 


>  <KEGG ID of Ligand>  (1) 


>  <ZINC ID of Ligand>  (1) 
ZINC28885536

>  <Number of Protein Chains in Target (bigger than 1 implies a multichain complex)>  (1) 
1

>  <BindingDB Target Chain Sequence>  (1) 
MILNSSTEDGIKRIQDDCPKAGRHNYIFIMIPTLYSIIFVVGIFGNSLVVIVIYFYMKLKTVASVFLLNLALADLCFLLTLPLWAVYTAMEYRWPFGNYLCKIASASVSFNLYASVFLLTCLSIDRYLAIVHPMKSRLRRTMLVAKVTCIIIWLLAGLASLPTIIHRNVFFIENTNITVCAFHYESQNSTLPVGLGLTKNILGFLFPFLIILTSYTLIWKTLKKAYEIQKNKPRKDDIFKIILAIVLFFFFSWVPHQIFTFMDVLIQLGLIRDCKIEDIVDTAMPITICLAYFNNCLNPLFYGFLGKKFKKYFLQLLKYIPPKAKSHSNLSTKMSTLSYRPSENGNSSTKKPAPCIEVE

>  <PDB ID(s) of Target Chain>  (1) 


>  <UniProt (SwissProt) Recommended Name of Target Chain>  (1) 
Type-1 angiotensin II receptor

>  <UniProt (SwissProt) Entry Name of Target Chain>  (1) 
AGTR1_BOVIN

>  <UniProt (SwissProt) Primary ID of Target Chain>  (1) 
P25104

>  <UniProt (SwissProt) Secondary ID(s) of Target Chain>  (1) 


>  <UniProt (SwissProt) Alternative ID(s) of Target Chain>  (1) 


>  <UniProt (TrEMBL) Submitted Name of Target Chain>  (1) 


>  <UniProt (TrEMBL) Entry Name of Target Chain>  (1) 


>  <UniProt (TrEMBL) Primary ID of Target Chain>  (1) 


>  <UniProt (TrEMBL) Secondary ID(s) of Target Chain>  (1) 


>  <UniProt (TrEMBL) Alternative ID(s) of Target Chain>  (1) 


$$$$
