
     RDKit          2D

 40 43  0  0  0  0  0  0  0  0999 V2000
    4.9750   -1.7250    0.0000 N   0  0  0  0  0  0  0  0  0  0  0  0
    5.9500   -1.7250    0.0000 N   0  0  0  0  0  0  0  0  0  0  0  0
    5.4667   -2.0792    0.0000 C   0  0  0  0  0  0  0  0  0  0  0  0
    5.1667   -1.1417    0.0000 C   0  0  0  0  0  0  0  0  0  0  0  0
    5.7667   -1.1417    0.0000 C   0  0  0  0  0  0  0  0  0  0  0  0
    4.8042   -0.6542    0.0000 C   0  0  0  0  0  0  0  0  0  0  0  0
    3.7917   -0.2667    0.0000 N   0  0  0  0  0  0  0  0  0  0  0  0
    4.2042   -0.7167    0.0000 C   0  0  0  0  0  0  0  0  0  0  0  0
    3.6667   -2.5750    0.0000 N   0  0  0  0  0  0  0  0  0  0  0  0
    3.2417   -1.0667    0.0000 N   0  0  0  0  0  0  0  0  0  0  0  0
    4.4000   -1.9125    0.0000 C   0  0  0  0  0  0  0  0  0  0  0  0
    3.2500   -0.5167    0.0000 C   0  0  0  0  0  0  0  0  0  0  0  0
    4.2667   -2.5042    0.0000 C   0  0  0  0  0  0  0  0  0  0  0  0
    3.8917   -1.2417    0.0000 C   0  0  0  0  0  0  0  0  0  0  0  0
    6.2167    1.0708    0.0000 C   0  0  0  0  0  0  0  0  0  0  0  0
    5.4667   -2.4250    0.0000 O   0  0  0  0  0  0  0  0  0  0  0  0
    3.9167    0.3250    0.0000 C   0  0  0  0  0  0  0  0  0  0  0  0
    3.2417   -2.1417    0.0000 O   0  0  0  0  0  0  0  0  0  0  0  0
    6.1125   -0.6542    0.0000 O   0  0  0  0  0  0  0  0  0  0  0  0
    5.6292    0.9208    0.0000 C   0  0  0  0  0  0  0  0  0  0  0  0
    6.3917    1.6458    0.0000 O   0  0  0  0  0  0  0  0  0  0  0  0
    6.5292   -1.9125    0.0000 C   0  0  0  0  0  0  0  0  0  0  0  0
    5.5167    0.2875    0.0000 C   0  0  0  0  0  0  0  0  0  0  0  0
    5.2042    1.3375    0.0000 C   0  0  0  0  0  0  0  0  0  0  0  0
    4.5000    0.5125    0.0000 C   0  0  0  0  0  0  0  0  0  0  0  0
    3.4292   -3.1292    0.0000 C   0  0  0  0  0  0  0  0  0  0  0  0
    6.6417    0.6333    0.0000 O   0  0  0  0  0  0  0  0  0  0  0  0
    4.9500    0.1000    0.0000 C   0  0  0  0  0  0  0  0  0  0  0  0
    4.6292    1.0958    0.0000 C   0  0  0  0  0  0  0  0  0  0  0  0
    2.7250   -0.2167    0.0000 C   0  0  0  0  0  0  0  0  0  0  0  0
    4.6292   -2.9875    0.0000 C   0  0  0  0  0  0  0  0  0  0  0  0
    7.2292    0.7708    0.0000 C   0  0  0  0  0  0  0  0  0  0  0  0
    6.6542   -2.5042    0.0000 C   0  0  0  0  0  0  0  0  0  0  0  0
    2.1917   -0.5167    0.0000 C   0  0  0  0  0  0  0  0  0  0  0  0
    3.7875   -3.6042    0.0000 C   0  0  0  0  0  0  0  0  0  0  0  0
    1.6792   -0.2167    0.0000 C   0  0  0  0  0  0  0  0  0  0  0  0
    7.2292   -2.6792    0.0000 C   0  0  0  0  0  0  0  0  0  0  0  0
    4.3875   -3.5417    0.0000 C   0  0  0  0  0  0  0  0  0  0  0  0
    1.1542   -0.5167    0.0000 C   0  0  0  0  0  0  0  0  0  0  0  0
    7.3542   -3.2750    0.0000 C   0  0  0  0  0  0  0  0  0  0  0  0
  2  3  1  0
  3  1  1  0
  4  1  1  0
  5  4  1  0
  6  4  2  0
  7  8  1  0
  8  6  1  0
  9 13  2  0
 10 14  1  0
 11  1  1  0
 12  7  1  0
 13 11  1  0
 14  8  2  0
 15 20  1  0
 16  3  2  0
 17  7  1  0
 18  9  1  0
 19  5  2  0
 20 24  2  0
 21 15  2  0
 22  2  1  0
 23 28  2  0
 24 29  1  0
 25 17  1  0
 26  9  1  0
 27 15  1  0
 28 25  1  0
 29 25  2  0
 30 12  1  0
 31 13  1  0
 32 27  1  0
 33 22  1  0
 34 30  1  0
 35 38  1  0
 36 34  1  0
 37 33  1  0
 38 31  2  0
 39 36  1  0
 40 37  1  0
  5  2  1  0
 26 35  2  0
 12 10  2  0
 23 20  1  0
M  CHG  2   9   1  18  -1
M  END
>  <From>  (1) 
www.bindingDB.org

>  <BindingDB Reactant_set_id>  (1) 
51186080

>  <Ligand InChI>  (1) 
InChI=1S/C30H35N5O5/c1-4-6-11-27-31-19-25(33(27)20-22-12-14-23(15-13-22)29(37)40-3)18-26-28(36)32(16-7-5-2)30(38)34(26)21-24-10-8-9-17-35(24)39/h8-10,12-15,17-19H,4-7,11,16,20-21H2,1-3H3/b26-18-

>  <Ligand InChI Key>  (1) 
METOVTOATLTHQU-ITYLOYPMSA-N

>  <BindingDB MonomerID>  (1) 
50487698

>  <BindingDB Ligand Name>  (1) 
CHEMBL330942

>  <Target Name>  (1) 
Type-1 angiotensin II receptor

>  <Target Source Organism According to Curator or DataSource>  (1) 
Homo sapiens

>  <Ki (nM)>  (1) 


>  <IC50 (nM)>  (1) 
 260

>  <Kd (nM)>  (1) 


>  <EC50 (nM)>  (1) 


>  <kon (M-1-s-1)>  (1) 


>  <koff (s-1)>  (1) 


>  <pH>  (1) 


>  <Temp C>  (1) 


>  <Curation/DataSource>  (1) 
ChEMBL

>  <Article DOI>  (1) 
10.1007/s00044-009-9205-9

>  <BindingDB Entry DOI>  (1) 
10.7270/Q2CC13K2

>  <PMID>  (1) 


>  <PubChem AID>  (1) 


>  <Patent Number>  (1) 


>  <Authors>  (1) 
n/a

>  <Institution>  (1) 
n/a

>  <Link to Ligand in BindingDB>  (1) 
http://www.bindingdb.org/bind/chemsearch/marvin/MolStructure.jsp?monomerid=50487698

>  <Link to Ligand-Target Pair in BindingDB>  (1) 
http://www.bindingdb.org/jsp/dbsearch/PrimarySearch_ki.jsp?energyterm=kJ/mole&tag=r21&monomerid=50487698&enzyme=Type-1+angiotensin+II+receptor&column=ki&startPg=0&Increment=50&submit=Search

>  <Ligand HET ID in PDB>  (1) 


>  <PDB ID(s) for Ligand-Target Complex>  (1) 


>  <PubChem CID of Ligand>  (1) 
10076109

>  <PubChem SID of Ligand>  (1) 
433954963

>  <ChEBI ID of Ligand>  (1) 


>  <ChEMBL ID of Ligand>  (1) 


>  <DrugBank ID of Ligand>  (1) 


>  <IUPHAR_GRAC ID of Ligand>  (1) 


>  <KEGG ID of Ligand>  (1) 


>  <ZINC ID of Ligand>  (1) 


>  <Number of Protein Chains in Target (bigger than 1 implies a multichain complex)>  (1) 
1

>  <BindingDB Target Chain Sequence>  (1) 
MILNSSTEDGIKRIQDDCPKAGRHNYIFVMIPTLYSIIFVVGIFGNSLVVIVIYFYMKLKTVASVFLLNLALADLCFLLTLPLWAVYTAMEYRWPFGNYLCKIASASVSFNLYASVFLLTCLSIDRYLAIVHPMKSRLRRTMLVAKVTCIIIWLLAGLASLPAIIHRNVFFIENTNITVCAFHYESQNSTLPIGLGLTKNILGFLFPFLIILTSYTLIWKALKKAYEIQKNKPRNDDIFKIIMAIVLFFFFSWIPHQIFTFLDVLIQLGIIRDCRIADIVDTAMPITICIAYFNNCLNPLFYGFLGKKFKRYFLQLLKYIPPKAKSHSNLSTKMSTLSYRPSDNVSSSTKKPAPCFEVE

>  <PDB ID(s) of Target Chain>  (1) 
6DO1,6OS0,6OS1,6OS2

>  <UniProt (SwissProt) Recommended Name of Target Chain>  (1) 
Type-1 angiotensin II receptor

>  <UniProt (SwissProt) Entry Name of Target Chain>  (1) 
AGTR1_HUMAN

>  <UniProt (SwissProt) Primary ID of Target Chain>  (1) 
P30556

>  <UniProt (SwissProt) Secondary ID(s) of Target Chain>  (1) 
Q13725 Q8TBK4

>  <UniProt (SwissProt) Alternative ID(s) of Target Chain>  (1) 


>  <UniProt (TrEMBL) Submitted Name of Target Chain>  (1) 


>  <UniProt (TrEMBL) Entry Name of Target Chain>  (1) 


>  <UniProt (TrEMBL) Primary ID of Target Chain>  (1) 


>  <UniProt (TrEMBL) Secondary ID(s) of Target Chain>  (1) 


>  <UniProt (TrEMBL) Alternative ID(s) of Target Chain>  (1) 


$$$$
