
     RDKit          2D

 29 31  0  0  0  0  0  0  0  0999 V2000
    1.4295   -1.4670    0.0000 N   0  0  0  0  0  0  0  0  0  0  0  0
    2.1046   -0.9794    0.0000 C   0  0  0  0  0  0  0  0  0  0  0  0
    1.8503   -0.1917    0.0000 C   0  0  0  0  0  0  0  0  0  0  0  0
    1.0252   -0.1917    0.0000 N   0  0  0  0  0  0  0  0  0  0  0  0
    0.7668   -0.9794    0.0000 C   0  0  0  0  0  0  0  0  0  0  0  0
    2.9298   -0.9794    0.0000 C   0  0  0  0  0  0  0  0  0  0  0  0
    5.0009   -3.5257    0.0000 C   0  0  0  0  0  0  0  0  0  0  0  0
    4.2883   -3.9382    0.0000 C   0  0  0  0  0  0  0  0  0  0  0  0
    4.9926   -2.7005    0.0000 C   0  0  0  0  0  0  0  0  0  0  0  0
    1.4295   -2.2921    0.0000 C   0  0  0  0  0  0  0  0  0  0  0  0
    3.5757   -3.5299    0.0000 C   0  0  0  0  0  0  0  0  0  0  0  0
    3.3423   -1.6920    0.0000 O   0  0  0  0  0  0  0  0  0  0  0  0
    4.2800   -2.2921    0.0000 O   0  0  0  0  0  0  0  0  0  0  0  0
    2.8547   -3.9424    0.0000 C   0  0  0  0  0  0  0  0  0  0  0  0
    3.5757   -2.7005    0.0000 C   0  0  0  0  0  0  0  0  0  0  0  0
    2.3296    0.4709    0.0000 C   0  0  0  0  0  0  0  0  0  0  0  0
    2.1421   -2.7005    0.0000 C   0  0  0  0  0  0  0  0  0  0  0  0
    3.3381   -0.2625    0.0000 O   0  0  0  0  0  0  0  0  0  0  0  0
    5.7053   -2.2879    0.0000 O   0  0  0  0  0  0  0  0  0  0  0  0
   -0.0208   -1.2294    0.0000 C   0  0  0  0  0  0  0  0  0  0  0  0
    2.1421   -3.5299    0.0000 C   0  0  0  0  0  0  0  0  0  0  0  0
    2.8547   -2.2879    0.0000 C   0  0  0  0  0  0  0  0  0  0  0  0
    5.7136   -3.9299    0.0000 C   0  0  0  0  0  0  0  0  0  0  0  0
    4.2883   -4.7676    0.0000 C   0  0  0  0  0  0  0  0  0  0  0  0
    2.0004    1.2252    0.0000 O   0  0  0  0  0  0  0  0  0  0  0  0
   -0.6334   -0.6793    0.0000 C   0  0  0  0  0  0  0  0  0  0  0  0
    5.0051   -5.1760    0.0000 C   0  0  0  0  0  0  0  0  0  0  0  0
    5.7178   -4.7634    0.0000 C   0  0  0  0  0  0  0  0  0  0  0  0
   -1.4128   -0.9377    0.0000 C   0  0  0  0  0  0  0  0  0  0  0  0
  2  1  1  0
  3  2  2  0
  4  5  2  0
  5  1  1  0
  6  2  1  0
  7  8  2  0
  8 11  1  0
  9  7  1  0
 10  1  1  0
 11 15  2  0
 12  6  2  0
 13  9  2  0
 14 21  2  0
 15 22  1  0
 16  3  1  0
 17 10  1  0
 18  6  1  0
 19  9  1  0
 20  5  1  0
 21 17  1  0
 22 17  2  0
 23  7  1  0
 24  8  1  0
 25 16  1  0
 26 20  1  0
 27 24  2  0
 28 27  1  0
 29 26  1  0
  4  3  1  0
 11 14  1  0
 28 23  2  0
M  END
>  <From>  (1) 
www.bindingDB.org

>  <BindingDB Reactant_set_id>  (1) 
50467430

>  <Ligand InChI>  (1) 
InChI=1S/C22H22N2O5/c1-2-5-19-23-18(13-25)20(22(28)29)24(19)12-14-8-10-15(11-9-14)16-6-3-4-7-17(16)21(26)27/h3-4,6-11,25H,2,5,12-13H2,1H3,(H,26,27)(H,28,29)

>  <Ligand InChI Key>  (1) 
AWFAYNQXWUOZAC-UHFFFAOYSA-N

>  <BindingDB MonomerID>  (1) 
50049108

>  <BindingDB Ligand Name>  (1) 
3-(2'-Carboxy-biphenyl-4-ylmethyl)-5-hydroxymethyl-2-propyl-3H-imidazole-4-carboxylic acid::CHEMBL417366

>  <Target Name>  (1) 
Type-1 angiotensin II receptor

>  <Target Source Organism According to Curator or DataSource>  (1) 
Bos taurus

>  <Ki (nM)>  (1) 


>  <IC50 (nM)>  (1) 
 58

>  <Kd (nM)>  (1) 


>  <EC50 (nM)>  (1) 


>  <kon (M-1-s-1)>  (1) 


>  <koff (s-1)>  (1) 


>  <pH>  (1) 


>  <Temp C>  (1) 


>  <Curation/DataSource>  (1) 
ChEMBL

>  <Article DOI>  (1) 
10.1016/S0960-894X(01)81143-4

>  <BindingDB Entry DOI>  (1) 
10.7270/Q2BG2NZQ

>  <PMID>  (1) 


>  <PubChem AID>  (1) 


>  <Patent Number>  (1) 


>  <Authors>  (1) 
Yanagisawa, H; Amemiya, Y; Kanazaki, T; Fujimoto, K; Shimoji, Y; Fujimoto, Y; Sada, T; Mizuno, M; Koike, H

>  <Institution>  (1) 
TBA

>  <Link to Ligand in BindingDB>  (1) 
http://www.bindingdb.org/bind/chemsearch/marvin/MolStructure.jsp?monomerid=50049108

>  <Link to Ligand-Target Pair in BindingDB>  (1) 
http://www.bindingdb.org/jsp/dbsearch/PrimarySearch_ki.jsp?energyterm=kJ/mole&tag=r21&monomerid=50049108&enzyme=Type-1+angiotensin+II+receptor&column=ki&startPg=0&Increment=50&submit=Search

>  <Ligand HET ID in PDB>  (1) 


>  <PDB ID(s) for Ligand-Target Complex>  (1) 


>  <PubChem CID of Ligand>  (1) 
10786794

>  <PubChem SID of Ligand>  (1) 
103979470

>  <ChEBI ID of Ligand>  (1) 


>  <ChEMBL ID of Ligand>  (1) 
CHEMBL417366

>  <DrugBank ID of Ligand>  (1) 


>  <IUPHAR_GRAC ID of Ligand>  (1) 


>  <KEGG ID of Ligand>  (1) 


>  <ZINC ID of Ligand>  (1) 
ZINC13745627

>  <Number of Protein Chains in Target (bigger than 1 implies a multichain complex)>  (1) 
1

>  <BindingDB Target Chain Sequence>  (1) 
MILNSSTEDGIKRIQDDCPKAGRHNYIFIMIPTLYSIIFVVGIFGNSLVVIVIYFYMKLKTVASVFLLNLALADLCFLLTLPLWAVYTAMEYRWPFGNYLCKIASASVSFNLYASVFLLTCLSIDRYLAIVHPMKSRLRRTMLVAKVTCIIIWLLAGLASLPTIIHRNVFFIENTNITVCAFHYESQNSTLPVGLGLTKNILGFLFPFLIILTSYTLIWKTLKKAYEIQKNKPRKDDIFKIILAIVLFFFFSWVPHQIFTFMDVLIQLGLIRDCKIEDIVDTAMPITICLAYFNNCLNPLFYGFLGKKFKKYFLQLLKYIPPKAKSHSNLSTKMSTLSYRPSENGNSSTKKPAPCIEVE

>  <PDB ID(s) of Target Chain>  (1) 


>  <UniProt (SwissProt) Recommended Name of Target Chain>  (1) 
Type-1 angiotensin II receptor

>  <UniProt (SwissProt) Entry Name of Target Chain>  (1) 
AGTR1_BOVIN

>  <UniProt (SwissProt) Primary ID of Target Chain>  (1) 
P25104

>  <UniProt (SwissProt) Secondary ID(s) of Target Chain>  (1) 


>  <UniProt (SwissProt) Alternative ID(s) of Target Chain>  (1) 


>  <UniProt (TrEMBL) Submitted Name of Target Chain>  (1) 


>  <UniProt (TrEMBL) Entry Name of Target Chain>  (1) 


>  <UniProt (TrEMBL) Primary ID of Target Chain>  (1) 


>  <UniProt (TrEMBL) Secondary ID(s) of Target Chain>  (1) 


>  <UniProt (TrEMBL) Alternative ID(s) of Target Chain>  (1) 


$$$$
