
     RDKit          2D

 34 38  0  0  0  0  0  0  0  0999 V2000
   11.3848   -1.1305    0.0000 N   0  0  0  0  0  0  0  0  0  0  0  0
   12.2776   -0.1364    0.0000 C   0  0  0  0  0  0  0  0  0  0  0  0
   11.4723   -0.3114    0.0000 N   0  0  0  0  0  0  0  0  0  0  0  0
   12.6918   -0.8529    0.0000 C   0  0  0  0  0  0  0  0  0  0  0  0
   12.1358   -1.4688    0.0000 C   0  0  0  0  0  0  0  0  0  0  0  0
   12.3898   -2.2538    0.0000 N   0  0  0  0  0  0  0  0  0  0  0  0
   13.2000   -2.4294    0.0000 C   0  0  0  0  0  0  0  0  0  0  0  0
   13.7559   -1.8136    0.0000 C   0  0  0  0  0  0  0  0  0  0  0  0
   13.5017   -1.0221    0.0000 C   0  0  0  0  0  0  0  0  0  0  0  0
   10.6692   -1.5409    0.0000 C   0  0  0  0  0  0  0  0  0  0  0  0
   10.6667   -2.3659    0.0000 C   0  0  0  0  0  0  0  0  0  0  0  0
    9.9525   -2.7732    0.0000 C   0  0  0  0  0  0  0  0  0  0  0  0
    9.9497   -3.5975    0.0000 C   0  0  0  0  0  0  0  0  0  0  0  0
   10.6635   -4.0129    0.0000 C   0  0  0  0  0  0  0  0  0  0  0  0
   11.3816   -3.5981    0.0000 C   0  0  0  0  0  0  0  0  0  0  0  0
   11.3808   -2.7752    0.0000 C   0  0  0  0  0  0  0  0  0  0  0  0
   10.6625   -4.8333    0.0000 C   0  0  0  0  0  0  0  0  0  0  0  0
    9.9457   -5.2441    0.0000 C   0  0  0  0  0  0  0  0  0  0  0  0
    9.9440   -6.0683    0.0000 C   0  0  0  0  0  0  0  0  0  0  0  0
   10.6584   -6.4828    0.0000 C   0  0  0  0  0  0  0  0  0  0  0  0
   11.3759   -6.0670    0.0000 C   0  0  0  0  0  0  0  0  0  0  0  0
   11.3740   -5.2441    0.0000 C   0  0  0  0  0  0  0  0  0  0  0  0
   12.0880   -4.8308    0.0000 C   0  0  0  0  0  0  0  0  0  0  0  0
   12.8397   -5.1636    0.0000 N   0  0  0  0  0  0  0  0  0  0  0  0
   13.3910   -4.5499    0.0000 N   0  0  0  0  0  0  0  0  0  0  0  0
   12.9777   -3.8358    0.0000 N   0  0  0  0  0  0  0  0  0  0  0  0
   12.1709   -4.0084    0.0000 N   0  0  0  0  0  0  0  0  0  0  0  0
   10.8584    0.2397    0.0000 C   0  0  0  0  0  0  0  0  0  0  0  0
   11.0287    1.0470    0.0000 C   0  0  0  0  0  0  0  0  0  0  0  0
   12.6113    0.6181    0.0000 O   0  0  0  0  0  0  0  0  0  0  0  0
   13.4528   -3.2147    0.0000 Cl  0  0  0  0  0  0  0  0  0  0  0  0
   10.4148    1.5981    0.0000 C   0  0  0  0  0  0  0  0  0  0  0  0
   10.5852    2.4053    0.0000 C   0  0  0  0  0  0  0  0  0  0  0  0
   14.5625   -1.9870    0.0000 F   0  0  0  0  0  0  0  0  0  0  0  0
 16 11  1  0
  5  6  1  0
  6  7  2  0
 17 18  2  0
  7  8  1  0
 18 19  1  0
  8  9  2  0
 19 20  2  0
  1  5  1  0
 20 21  1  0
  1 10  1  0
 21 22  2  0
 22 17  1  0
 14 17  1  0
 22 23  1  0
 23 24  1  0
 10 11  1  0
  4  2  1  0
 11 12  2  0
  2  3  1  0
 24 25  1  0
 25 26  2  0
 26 27  1  0
 27 23  2  0
 12 13  1  0
  3 28  1  0
  3  1  1  0
 28 29  1  0
 13 14  2  0
  2 30  2  0
  4  5  2  0
  7 31  1  0
 14 15  1  0
 29 32  1  0
  4  9  1  0
 32 33  1  0
 15 16  2  0
  8 34  1  0
M  END
>  <From>  (1) 
www.bindingDB.org

>  <BindingDB Reactant_set_id>  (1) 
50867930

>  <Ligand InChI>  (1) 
InChI=1S/C24H21ClFN7O/c1-2-3-12-32-24(34)19-13-20(26)21(25)27-23(19)33(32)14-15-8-10-16(11-9-15)17-6-4-5-7-18(17)22-28-30-31-29-22/h4-11,13H,2-3,12,14H2,1H3,(H,28,29,30,31)

>  <Ligand InChI Key>  (1) 
TVOTUWSBAXNGEN-UHFFFAOYSA-N

>  <BindingDB MonomerID>  (1) 
50376920

>  <BindingDB Ligand Name>  (1) 
CHEMBL259575

>  <Target Name>  (1) 
Type-1 angiotensin II receptor A

>  <Target Source Organism According to Curator or DataSource>  (1) 
Rattus

>  <Ki (nM)>  (1) 


>  <IC50 (nM)>  (1) 
 427

>  <Kd (nM)>  (1) 


>  <EC50 (nM)>  (1) 


>  <kon (M-1-s-1)>  (1) 


>  <koff (s-1)>  (1) 


>  <pH>  (1) 


>  <Temp C>  (1) 


>  <Curation/DataSource>  (1) 
ChEMBL

>  <Article DOI>  (1) 
10.1021/jm7011563

>  <BindingDB Entry DOI>  (1) 
10.7270/Q20P10X0

>  <PMID>  (1) 
18318468

>  <PubChem AID>  (1) 


>  <Patent Number>  (1) 


>  <Authors>  (1) 
Cappelli, A; Nannicini, C; Gallelli, A; Giuliani, G; Valenti, S; Mohr, Gl; Anzini, M; Mennuni, L; Ferrari, F; Caselli, G; Giordani, A; Peris, W; Makovec, F; Giorgi, G; Vomero, S

>  <Institution>  (1) 
Universit&#163; di Siena

>  <Link to Ligand in BindingDB>  (1) 
http://www.bindingdb.org/bind/chemsearch/marvin/MolStructure.jsp?monomerid=50376920

>  <Link to Ligand-Target Pair in BindingDB>  (1) 
http://www.bindingdb.org/jsp/dbsearch/PrimarySearch_ki.jsp?energyterm=kJ/mole&tag=r21&monomerid=50376920&enzyme=Type-1+angiotensin+II+receptor+A&column=ki&startPg=0&Increment=50&submit=Search

>  <Ligand HET ID in PDB>  (1) 


>  <PDB ID(s) for Ligand-Target Complex>  (1) 


>  <PubChem CID of Ligand>  (1) 
24827903

>  <PubChem SID of Ligand>  (1) 
160856003

>  <ChEBI ID of Ligand>  (1) 


>  <ChEMBL ID of Ligand>  (1) 
CHEMBL259575

>  <DrugBank ID of Ligand>  (1) 


>  <IUPHAR_GRAC ID of Ligand>  (1) 


>  <KEGG ID of Ligand>  (1) 


>  <ZINC ID of Ligand>  (1) 
ZINC29051195

>  <Number of Protein Chains in Target (bigger than 1 implies a multichain complex)>  (1) 
1

>  <BindingDB Target Chain Sequence>  (1) 
MALNSSAEDGIKRIQDDCPKAGRHSYIFVMIPTLYSIIFVVGIFGNSLVVIVIYFYMKLKTVASVFLLNLALADLCFLLTLPLWAVYTAMEYRWPFGNHLCKIASASVSFNLYASVFLLTCLSIDRYLAIVHPMKSRLRRTMLVAKVTCIIIWLMAGLASLPAVIHRNVYFIENTNITVCAFHYESRNSTLPIGLGLTKNILGFLFPFLIILTSYTLIWKALKKAYEIQKNKPRNDDIFRIIMAIVLFFFFSWVPHQIFTFLDVLIQLGVIHDCKISDIVDTAMPITICIAYFNNCLNPLFYGFLGKKFKKYFLQLLKYIPPKAKSHSSLSTKMSTLSYRPSDNMSSSAKKPASCFEVE

>  <PDB ID(s) of Target Chain>  (1) 


>  <UniProt (SwissProt) Recommended Name of Target Chain>  (1) 
Type-1 angiotensin II receptor A

>  <UniProt (SwissProt) Entry Name of Target Chain>  (1) 
AGTRA_RAT

>  <UniProt (SwissProt) Primary ID of Target Chain>  (1) 
P25095

>  <UniProt (SwissProt) Secondary ID(s) of Target Chain>  (1) 
Q9QVS5

>  <UniProt (SwissProt) Alternative ID(s) of Target Chain>  (1) 


>  <UniProt (TrEMBL) Submitted Name of Target Chain>  (1) 


>  <UniProt (TrEMBL) Entry Name of Target Chain>  (1) 


>  <UniProt (TrEMBL) Primary ID of Target Chain>  (1) 


>  <UniProt (TrEMBL) Secondary ID(s) of Target Chain>  (1) 


>  <UniProt (TrEMBL) Alternative ID(s) of Target Chain>  (1) 


$$$$
