
     RDKit          2D

 39 43  0  0  0  0  0  0  0  0999 V2000
    7.6542   -9.6480    0.0000 C   0  0  0  0  0  0  0  0  0  0  0  0
    6.9953   -9.1609    0.0000 N   0  0  0  0  0  0  0  0  0  0  0  0
    7.3964  -10.4386    0.0000 C   0  0  0  0  0  0  0  0  0  0  0  0
    6.3250   -9.6480    0.0000 N   0  0  0  0  0  0  0  0  0  0  0  0
    6.5714  -10.4386    0.0000 C   0  0  0  0  0  0  0  0  0  0  0  0
   11.2922   -9.5906    0.0000 C   0  0  0  0  0  0  0  0  0  0  0  0
   10.8855   -8.3188    0.0000 N   0  0  0  0  0  0  0  0  0  0  0  0
   10.6277   -9.0980    0.0000 N   0  0  0  0  0  0  0  0  0  0  0  0
   11.7105   -8.3245    0.0000 N   0  0  0  0  0  0  0  0  0  0  0  0
   11.9625   -9.1094    0.0000 N   0  0  0  0  0  0  0  0  0  0  0  0
    8.4448   -9.3902    0.0000 C   0  0  0  0  0  0  0  0  0  0  0  0
   11.5730  -10.3698    0.0000 C   0  0  0  0  0  0  0  0  0  0  0  0
   11.1777  -11.0917    0.0000 C   0  0  0  0  0  0  0  0  0  0  0  0
    7.1902   -8.3589    0.0000 C   0  0  0  0  0  0  0  0  0  0  0  0
    7.8891  -11.1031    0.0000 C   0  0  0  0  0  0  0  0  0  0  0  0
   10.3527  -11.0917    0.0000 C   0  0  0  0  0  0  0  0  0  0  0  0
    9.2355   -9.7855    0.0000 O   0  0  0  0  0  0  0  0  0  0  0  0
    6.6058   -7.7917    0.0000 C   0  0  0  0  0  0  0  0  0  0  0  0
    7.9808   -8.1355    0.0000 C   0  0  0  0  0  0  0  0  0  0  0  0
    9.9344  -10.3870    0.0000 C   0  0  0  0  0  0  0  0  0  0  0  0
    9.9402  -11.8078    0.0000 C   0  0  0  0  0  0  0  0  0  0  0  0
    8.7027  -11.0917    0.0000 C   0  0  0  0  0  0  0  0  0  0  0  0
    8.6167   -8.5823    0.0000 O   0  0  0  0  0  0  0  0  0  0  0  0
    7.5855   -6.7719    0.0000 C   0  0  0  0  0  0  0  0  0  0  0  0
    9.1152  -11.8136    0.0000 C   0  0  0  0  0  0  0  0  0  0  0  0
    9.1152  -10.3870    0.0000 C   0  0  0  0  0  0  0  0  0  0  0  0
    8.1813   -7.3448    0.0000 C   0  0  0  0  0  0  0  0  0  0  0  0
    6.7948   -7.0011    0.0000 C   0  0  0  0  0  0  0  0  0  0  0  0
    7.7917   -5.9698    0.0000 Cl  0  0  0  0  0  0  0  0  0  0  0  0
    6.0902  -11.1031    0.0000 C   0  0  0  0  0  0  0  0  0  0  0  0
   12.3980  -10.3698    0.0000 C   0  0  0  0  0  0  0  0  0  0  0  0
   11.5902  -11.8078    0.0000 C   0  0  0  0  0  0  0  0  0  0  0  0
    9.4073   -8.3589    0.0000 C   0  0  0  0  0  0  0  0  0  0  0  0
    5.2652  -11.0917    0.0000 C   0  0  0  0  0  0  0  0  0  0  0  0
    4.8469  -11.7964    0.0000 C   0  0  0  0  0  0  0  0  0  0  0  0
   12.4152  -11.7964    0.0000 C   0  0  0  0  0  0  0  0  0  0  0  0
   12.8219  -11.0859    0.0000 C   0  0  0  0  0  0  0  0  0  0  0  0
    9.6308   -7.5683    0.0000 C   0  0  0  0  0  0  0  0  0  0  0  0
    4.0219  -11.7964    0.0000 C   0  0  0  0  0  0  0  0  0  0  0  0
  2  1  1  0
  3  1  2  0
  4  2  1  0
  5  3  1  0
  6 12  1  0
  7  8  1  0
  8  6  1  0
  9 10  1  0
 10  6  2  0
 11  1  1  0
 12 13  1  0
 13 16  1  0
 14  2  1  0
 15  3  1  0
 16 20  2  0
 17 11  2  0
 18 14  2  0
 19 14  1  0
 20 26  1  0
 21 25  2  0
 22 15  1  0
 23 11  1  0
 24 27  1  0
 25 22  1  0
 26 22  2  0
 27 19  2  0
 28 18  1  0
 29 24  1  0
 30  5  1  0
 31 12  2  0
 32 13  2  0
 33 23  1  0
 34 30  1  0
 35 34  1  0
 36 32  1  0
 37 36  2  0
 38 33  1  0
 39 35  1  0
  5  4  2  0
 28 24  2  0
 16 21  1  0
 37 31  1  0
  7  9  2  0
M  END
>  <From>  (1) 
www.bindingDB.org

>  <BindingDB Reactant_set_id>  (1) 
50061777

>  <Ligand InChI>  (1) 
InChI=1S/C30H29ClN6O2/c1-3-5-10-27-26(28(30(38)39-4-2)37(34-27)23-17-15-22(31)16-18-23)19-20-11-13-21(14-12-20)24-8-6-7-9-25(24)29-32-35-36-33-29/h6-9,11-18H,3-5,10,19H2,1-2H3,(H,32,33,35,36)

>  <Ligand InChI Key>  (1) 
KBWXCDNLLSZCIW-UHFFFAOYSA-N

>  <BindingDB MonomerID>  (1) 
50042564

>  <BindingDB Ligand Name>  (1) 
5-Butyl-2-(4-chloro-phenyl)-4-[2'-(1H-tetrazol-5-yl)-biphenyl-4-ylmethyl]-2H-pyrazole-3-carboxylic acid ethyl ester::CHEMBL91287

>  <Target Name>  (1) 
Type-1 angiotensin II receptor

>  <Target Source Organism According to Curator or DataSource>  (1) 
Oryctolagus cuniculus

>  <Ki (nM)>  (1) 


>  <IC50 (nM)>  (1) 
 100

>  <Kd (nM)>  (1) 


>  <EC50 (nM)>  (1) 


>  <kon (M-1-s-1)>  (1) 


>  <koff (s-1)>  (1) 


>  <pH>  (1) 


>  <Temp C>  (1) 


>  <Curation/DataSource>  (1) 
ChEMBL

>  <Article DOI>  (1) 
10.1021/jm00075a014

>  <BindingDB Entry DOI>  (1) 
10.7270/Q25Q4V5H

>  <PMID>  (1) 
8246227

>  <PubChem AID>  (1) 


>  <Patent Number>  (1) 


>  <Authors>  (1) 
Ashton, WT; Hutchins, SM; Greenlee, WJ; Doss, GA; Chang, RS; Lotti, VJ; Faust, KA; Chen, TB; Zingaro, GJ; Kivlighn, SD

>  <Institution>  (1) 
Merck Research Laboratories

>  <Link to Ligand in BindingDB>  (1) 
http://www.bindingdb.org/bind/chemsearch/marvin/MolStructure.jsp?monomerid=50042564

>  <Link to Ligand-Target Pair in BindingDB>  (1) 
http://www.bindingdb.org/jsp/dbsearch/PrimarySearch_ki.jsp?energyterm=kJ/mole&tag=r21&monomerid=50042564&enzyme=Type-1+angiotensin+II+receptor&column=ki&startPg=0&Increment=50&submit=Search

>  <Ligand HET ID in PDB>  (1) 


>  <PDB ID(s) for Ligand-Target Complex>  (1) 


>  <PubChem CID of Ligand>  (1) 
14971675

>  <PubChem SID of Ligand>  (1) 
103974160

>  <ChEBI ID of Ligand>  (1) 


>  <ChEMBL ID of Ligand>  (1) 
CHEMBL91287

>  <DrugBank ID of Ligand>  (1) 


>  <IUPHAR_GRAC ID of Ligand>  (1) 


>  <KEGG ID of Ligand>  (1) 


>  <ZINC ID of Ligand>  (1) 
ZINC26651254

>  <Number of Protein Chains in Target (bigger than 1 implies a multichain complex)>  (1) 
1

>  <BindingDB Target Chain Sequence>  (1) 
MMLNSSTEDGIKRIQDDCPKAGRHNYIFVMIPTLYSIIFVVGIFGNSLAVIVIYFYMKLKTVASVFLLNLALADLCFLLTLPLWAVYTAMEYRWPFGNYLCKIASASVSFNLYASVFLLTCLSIDRYLAIVHPMKSRLRRTMLVAKVTCIIIWLLAGLASLPAIIHRNVFFIENTNITVCAFHYESQNSTLPIGLGLTKNILGFLFPFLIILTSYTLIWKALKKAYEIQKNKPRNDDIFKIIMAIVLFFFFSWVPHQIFTFLDVLIQLGVIHDCRIADIVDTAMPITICIAYFNNCLNPLFYGFLGKKFKKYFLQLLKYIPPKAKSHSNLSTKMSTLSYRPSDNVSSSSKKPVPCFEVE

>  <PDB ID(s) of Target Chain>  (1) 
6DO1,6OS0,6OS1,6OS2

>  <UniProt (SwissProt) Recommended Name of Target Chain>  (1) 
Type-1 angiotensin II receptor

>  <UniProt (SwissProt) Entry Name of Target Chain>  (1) 
AGTR1_RABIT

>  <UniProt (SwissProt) Primary ID of Target Chain>  (1) 
P34976

>  <UniProt (SwissProt) Secondary ID(s) of Target Chain>  (1) 


>  <UniProt (SwissProt) Alternative ID(s) of Target Chain>  (1) 


>  <UniProt (TrEMBL) Submitted Name of Target Chain>  (1) 


>  <UniProt (TrEMBL) Entry Name of Target Chain>  (1) 


>  <UniProt (TrEMBL) Primary ID of Target Chain>  (1) 


>  <UniProt (TrEMBL) Secondary ID(s) of Target Chain>  (1) 


>  <UniProt (TrEMBL) Alternative ID(s) of Target Chain>  (1) 


$$$$
