
     RDKit          2D

 34 38  0  0  0  0  0  0  0  0999 V2000
    1.5004   -8.3037    0.0000 N   0  0  0  0  0  0  0  0  0  0  0  0
    1.0136   -7.6337    0.0000 C   0  0  0  0  0  0  0  0  0  0  0  0
    1.4947   -6.9636    0.0000 N   0  0  0  0  0  0  0  0  0  0  0  0
    2.2907   -8.0460    0.0000 C   0  0  0  0  0  0  0  0  0  0  0  0
    4.7990  -11.4418    0.0000 C   0  0  0  0  0  0  0  0  0  0  0  0
    2.9951   -8.4583    0.0000 C   0  0  0  0  0  0  0  0  0  0  0  0
    4.7303  -10.1076    0.0000 N   0  0  0  0  0  0  0  0  0  0  0  0
    4.2836  -10.7948    0.0000 N   0  0  0  0  0  0  0  0  0  0  0  0
    5.5319  -10.3309    0.0000 N   0  0  0  0  0  0  0  0  0  0  0  0
    2.2849   -7.2156    0.0000 C   0  0  0  0  0  0  0  0  0  0  0  0
    5.5663  -11.1498    0.0000 N   0  0  0  0  0  0  0  0  0  0  0  0
    4.5756  -12.2379    0.0000 C   0  0  0  0  0  0  0  0  0  0  0  0
    3.0123   -9.1455    0.0000 C   0  0  0  0  0  0  0  0  0  0  0  0
    3.7796  -12.4383    0.0000 C   0  0  0  0  0  0  0  0  0  0  0  0
    1.4832  -10.0732    0.0000 C   0  0  0  0  0  0  0  0  0  0  0  0
    3.2012  -11.8427    0.0000 C   0  0  0  0  0  0  0  0  0  0  0  0
    0.1890   -7.6337    0.0000 S   0  0  0  0  0  0  0  0  0  0  0  0
    2.3766   -9.5349    0.0000 O   0  0  0  0  0  0  0  0  0  0  0  0
    2.4052  -12.0489    0.0000 C   0  0  0  0  0  0  0  0  0  0  0  0
    3.5105  -11.1154    0.0000 C   0  0  0  0  0  0  0  0  0  0  0  0
    2.0616  -10.6573    0.0000 C   0  0  0  0  0  0  0  0  0  0  0  0
    3.7166   -8.0460    0.0000 C   0  0  0  0  0  0  0  0  0  0  0  0
    3.7280   -9.4204    0.0000 O   0  0  0  0  0  0  0  0  0  0  0  0
    1.8268  -11.4590    0.0000 C   0  0  0  0  0  0  0  0  0  0  0  0
    2.8576  -10.4626    0.0000 C   0  0  0  0  0  0  0  0  0  0  0  0
    2.9951   -6.8032    0.0000 C   0  0  0  0  0  0  0  0  0  0  0  0
    5.1540  -12.8220    0.0000 C   0  0  0  0  0  0  0  0  0  0  0  0
    3.5562  -13.2343    0.0000 C   0  0  0  0  0  0  0  0  0  0  0  0
    3.7166   -7.2156    0.0000 C   0  0  0  0  0  0  0  0  0  0  0  0
   -0.2347   -6.9293    0.0000 C   0  0  0  0  0  0  0  0  0  0  0  0
    4.3179   -8.9565    0.0000 C   0  0  0  0  0  0  0  0  0  0  0  0
    4.1290  -13.8184    0.0000 C   0  0  0  0  0  0  0  0  0  0  0  0
    4.9306  -13.6237    0.0000 C   0  0  0  0  0  0  0  0  0  0  0  0
   -1.0594   -6.9293    0.0000 C   0  0  0  0  0  0  0  0  0  0  0  0
  2  1  1  0
  3  2  2  0
  4  1  1  0
  5 12  1  0
  6  4  2  0
  7  8  1  0
  8  5  2  0
  9 11  1  0
 10  4  1  0
 11  5  1  0
 12 14  1  0
 13  6  1  0
 14 16  1  0
 15  1  1  0
 16 20  2  0
 17  2  1  0
 18 13  2  0
 19 24  2  0
 20 25  1  0
 21 15  1  0
 22  6  1  0
 23 13  1  0
 24 21  1  0
 25 21  2  0
 26 10  2  0
 27 12  2  0
 28 14  2  0
 29 26  1  0
 30 17  1  0
 31 23  1  0
 32 28  1  0
 33 32  2  0
 34 30  1  0
 10  3  1  0
 19 16  1  0
 22 29  2  0
 33 27  1  0
  9  7  2  0
M  END
>  <From>  (1) 
www.bindingDB.org

>  <BindingDB Reactant_set_id>  (1) 
50764777

>  <Ligand InChI>  (1) 
InChI=1S/C25H22N6O2S/c1-3-34-25-26-21-10-6-9-20(24(32)33-2)22(21)31(25)15-16-11-13-17(14-12-16)18-7-4-5-8-19(18)23-27-29-30-28-23/h4-14H,3,15H2,1-2H3,(H,27,28,29,30)

>  <Ligand InChI Key>  (1) 
WFKIAURHDAAYMT-UHFFFAOYSA-N

>  <BindingDB MonomerID>  (1) 
50044378

>  <BindingDB Ligand Name>  (1) 
2-Ethylsulfanyl-3-[2'-(1H-tetrazol-5-yl)-biphenyl-4-ylmethyl]-3H-benzoimidazole-4-carboxylic acid methyl ester::CHEMBL420551

>  <Target Name>  (1) 
Type-1 angiotensin II receptor

>  <Target Source Organism According to Curator or DataSource>  (1) 
Bos taurus

>  <Ki (nM)>  (1) 


>  <IC50 (nM)>  (1) 
 440

>  <Kd (nM)>  (1) 


>  <EC50 (nM)>  (1) 


>  <kon (M-1-s-1)>  (1) 


>  <koff (s-1)>  (1) 


>  <pH>  (1) 


>  <Temp C>  (1) 


>  <Curation/DataSource>  (1) 
ChEMBL

>  <Article DOI>  (1) 
10.1021/jm00067a016

>  <BindingDB Entry DOI>  (1) 
10.7270/Q20Z73X8

>  <PMID>  (1) 
8340921

>  <PubChem AID>  (1) 


>  <Patent Number>  (1) 


>  <Authors>  (1) 
Kubo, K; Kohara, Y; Imamiya, E; Sugiura, Y; Inada, Y; Furukawa, Y; Nishikawa, K; Naka, T

>  <Institution>  (1) 
Takeda Chemical Industries, Ltd

>  <Link to Ligand in BindingDB>  (1) 
http://www.bindingdb.org/bind/chemsearch/marvin/MolStructure.jsp?monomerid=50044378

>  <Link to Ligand-Target Pair in BindingDB>  (1) 
http://www.bindingdb.org/jsp/dbsearch/PrimarySearch_ki.jsp?energyterm=kJ/mole&tag=r21&monomerid=50044378&enzyme=Type-1+angiotensin+II+receptor&column=ki&startPg=0&Increment=50&submit=Search

>  <Ligand HET ID in PDB>  (1) 


>  <PDB ID(s) for Ligand-Target Complex>  (1) 


>  <PubChem CID of Ligand>  (1) 
15654700

>  <PubChem SID of Ligand>  (1) 
103975632

>  <ChEBI ID of Ligand>  (1) 


>  <ChEMBL ID of Ligand>  (1) 
CHEMBL420551

>  <DrugBank ID of Ligand>  (1) 


>  <IUPHAR_GRAC ID of Ligand>  (1) 


>  <KEGG ID of Ligand>  (1) 


>  <ZINC ID of Ligand>  (1) 
ZINC13832262

>  <Number of Protein Chains in Target (bigger than 1 implies a multichain complex)>  (1) 
1

>  <BindingDB Target Chain Sequence>  (1) 
MILNSSTEDGIKRIQDDCPKAGRHNYIFIMIPTLYSIIFVVGIFGNSLVVIVIYFYMKLKTVASVFLLNLALADLCFLLTLPLWAVYTAMEYRWPFGNYLCKIASASVSFNLYASVFLLTCLSIDRYLAIVHPMKSRLRRTMLVAKVTCIIIWLLAGLASLPTIIHRNVFFIENTNITVCAFHYESQNSTLPVGLGLTKNILGFLFPFLIILTSYTLIWKTLKKAYEIQKNKPRKDDIFKIILAIVLFFFFSWVPHQIFTFMDVLIQLGLIRDCKIEDIVDTAMPITICLAYFNNCLNPLFYGFLGKKFKKYFLQLLKYIPPKAKSHSNLSTKMSTLSYRPSENGNSSTKKPAPCIEVE

>  <PDB ID(s) of Target Chain>  (1) 


>  <UniProt (SwissProt) Recommended Name of Target Chain>  (1) 
Type-1 angiotensin II receptor

>  <UniProt (SwissProt) Entry Name of Target Chain>  (1) 
AGTR1_BOVIN

>  <UniProt (SwissProt) Primary ID of Target Chain>  (1) 
P25104

>  <UniProt (SwissProt) Secondary ID(s) of Target Chain>  (1) 


>  <UniProt (SwissProt) Alternative ID(s) of Target Chain>  (1) 


>  <UniProt (TrEMBL) Submitted Name of Target Chain>  (1) 


>  <UniProt (TrEMBL) Entry Name of Target Chain>  (1) 


>  <UniProt (TrEMBL) Primary ID of Target Chain>  (1) 


>  <UniProt (TrEMBL) Secondary ID(s) of Target Chain>  (1) 


>  <UniProt (TrEMBL) Alternative ID(s) of Target Chain>  (1) 


$$$$
