
     RDKit          2D

 37 41  0  0  0  0  0  0  0  0999 V2000
    9.3314   -3.9648    0.0000 C   0  0  0  0  0  0  0  0  0  0  0  0
   10.0411   -3.5554    0.0000 C   0  0  0  0  0  0  0  0  0  0  0  0
   10.0382   -2.7327    0.0000 C   0  0  0  0  0  0  0  0  0  0  0  0
    9.3296   -2.3275    0.0000 C   0  0  0  0  0  0  0  0  0  0  0  0
    8.6233   -3.5559    0.0000 C   0  0  0  0  0  0  0  0  0  0  0  0
    8.6246   -2.7348    0.0000 C   0  0  0  0  0  0  0  0  0  0  0  0
    7.8441   -2.4799    0.0000 N   0  0  0  0  0  0  0  0  0  0  0  0
    7.3604   -3.1434    0.0000 C   0  0  0  0  0  0  0  0  0  0  0  0
    7.8421   -3.8083    0.0000 N   0  0  0  0  0  0  0  0  0  0  0  0
    6.5432   -3.1422    0.0000 C   0  0  0  0  0  0  0  0  0  0  0  0
    6.1356   -2.4339    0.0000 C   0  0  0  0  0  0  0  0  0  0  0  0
    5.3184   -2.4328    0.0000 C   0  0  0  0  0  0  0  0  0  0  0  0
    4.9109   -1.7245    0.0000 C   0  0  0  0  0  0  0  0  0  0  0  0
    7.5884   -4.5852    0.0000 C   0  0  0  0  0  0  0  0  0  0  0  0
    6.7888   -4.7539    0.0000 C   0  0  0  0  0  0  0  0  0  0  0  0
    6.2462   -4.1460    0.0000 C   0  0  0  0  0  0  0  0  0  0  0  0
    5.4473   -4.3143    0.0000 C   0  0  0  0  0  0  0  0  0  0  0  0
    5.1929   -5.0918    0.0000 C   0  0  0  0  0  0  0  0  0  0  0  0
    5.7436   -5.7013    0.0000 C   0  0  0  0  0  0  0  0  0  0  0  0
    6.5405   -5.5299    0.0000 C   0  0  0  0  0  0  0  0  0  0  0  0
    4.3986   -5.2617    0.0000 C   0  0  0  0  0  0  0  0  0  0  0  0
    3.8521   -4.6527    0.0000 C   0  0  0  0  0  0  0  0  0  0  0  0
    3.0534   -4.8219    0.0000 C   0  0  0  0  0  0  0  0  0  0  0  0
    2.8001   -5.5998    0.0000 C   0  0  0  0  0  0  0  0  0  0  0  0
    3.3516   -6.2086    0.0000 C   0  0  0  0  0  0  0  0  0  0  0  0
    4.1482   -6.0361    0.0000 C   0  0  0  0  0  0  0  0  0  0  0  0
    4.6979   -6.6424    0.0000 C   0  0  0  0  0  0  0  0  0  0  0  0
    4.5302   -7.4422    0.0000 N   0  0  0  0  0  0  0  0  0  0  0  0
    5.2389   -7.8489    0.0000 N   0  0  0  0  0  0  0  0  0  0  0  0
    5.8448   -7.3005    0.0000 N   0  0  0  0  0  0  0  0  0  0  0  0
    5.5104   -6.5549    0.0000 N   0  0  0  0  0  0  0  0  0  0  0  0
    9.3320   -4.7849    0.0000 C   0  0  0  0  0  0  0  0  0  0  0  0
    8.6242   -5.1933    0.0000 O   0  0  0  0  0  0  0  0  0  0  0  0
   10.0396   -5.1937    0.0000 O   0  0  0  0  0  0  0  0  0  0  0  0
   10.0394   -6.0109    0.0000 C   0  0  0  0  0  0  0  0  0  0  0  0
   10.7470   -6.4196    0.0000 C   0  0  0  0  0  0  0  0  0  0  0  0
   10.7494   -3.9629    0.0000 C   0  0  0  0  0  0  0  0  0  0  0  0
  5  1  2  0
  1  2  1  0
  2  3  2  0
  3  4  1  0
  4  6  2  0
  5  6  1  0
  6  7  1  0
  7  8  2  0
  8  9  1  0
  9  5  1  0
  8 10  1  0
 10 11  1  0
 11 12  1  0
 12 13  1  0
  9 14  1  0
 14 15  1  0
 15 16  2  0
 16 17  1  0
 17 18  2  0
 18 19  1  0
 19 20  2  0
 20 15  1  0
 21 22  2  0
 22 23  1  0
 23 24  2  0
 24 25  1  0
 25 26  2  0
 26 21  1  0
 18 21  1  0
 27 28  1  0
 28 29  1  0
 29 30  2  0
 30 31  1  0
 31 27  2  0
 26 27  1  0
 32 33  2  0
 32 34  1  0
  1 32  1  0
 34 35  1  0
 35 36  1  0
  2 37  1  0
M  END
>  <From>  (1) 
www.bindingDB.org

>  <BindingDB Reactant_set_id>  (1) 
51185899

>  <Ligand InChI>  (1) 
InChI=1S/C29H30N6O2/c1-4-6-11-25-30-24-17-12-19(3)26(29(36)37-5-2)27(24)35(25)18-20-13-15-21(16-14-20)22-9-7-8-10-23(22)28-31-33-34-32-28/h7-10,12-17H,4-6,11,18H2,1-3H3,(H,31,32,33,34)

>  <Ligand InChI Key>  (1) 
NDOIRUSWPIIYPL-UHFFFAOYSA-N

>  <BindingDB MonomerID>  (1) 
50487621

>  <BindingDB Ligand Name>  (1) 
CHEMBL2261752

>  <Target Name>  (1) 
Type-1 angiotensin II receptor

>  <Target Source Organism According to Curator or DataSource>  (1) 
Bos taurus

>  <Ki (nM)>  (1) 


>  <IC50 (nM)>  (1) 
 910

>  <Kd (nM)>  (1) 


>  <EC50 (nM)>  (1) 


>  <kon (M-1-s-1)>  (1) 


>  <koff (s-1)>  (1) 


>  <pH>  (1) 


>  <Temp C>  (1) 


>  <Curation/DataSource>  (1) 
ChEMBL

>  <Article DOI>  (1) 
10.1007/s00044-009-9182-z

>  <BindingDB Entry DOI>  (1) 
10.7270/Q2RN3BR4

>  <PMID>  (1) 


>  <PubChem AID>  (1) 


>  <Patent Number>  (1) 


>  <Authors>  (1) 
n/a

>  <Institution>  (1) 
n/a

>  <Link to Ligand in BindingDB>  (1) 
http://www.bindingdb.org/bind/chemsearch/marvin/MolStructure.jsp?monomerid=50487621

>  <Link to Ligand-Target Pair in BindingDB>  (1) 
http://www.bindingdb.org/jsp/dbsearch/PrimarySearch_ki.jsp?energyterm=kJ/mole&tag=r21&monomerid=50487621&enzyme=Type-1+angiotensin+II+receptor&column=ki&startPg=0&Increment=50&submit=Search

>  <Ligand HET ID in PDB>  (1) 


>  <PDB ID(s) for Ligand-Target Complex>  (1) 


>  <PubChem CID of Ligand>  (1) 
19792137

>  <PubChem SID of Ligand>  (1) 
433954886

>  <ChEBI ID of Ligand>  (1) 


>  <ChEMBL ID of Ligand>  (1) 


>  <DrugBank ID of Ligand>  (1) 


>  <IUPHAR_GRAC ID of Ligand>  (1) 


>  <KEGG ID of Ligand>  (1) 


>  <ZINC ID of Ligand>  (1) 


>  <Number of Protein Chains in Target (bigger than 1 implies a multichain complex)>  (1) 
1

>  <BindingDB Target Chain Sequence>  (1) 
MILNSSTEDGIKRIQDDCPKAGRHNYIFIMIPTLYSIIFVVGIFGNSLVVIVIYFYMKLKTVASVFLLNLALADLCFLLTLPLWAVYTAMEYRWPFGNYLCKIASASVSFNLYASVFLLTCLSIDRYLAIVHPMKSRLRRTMLVAKVTCIIIWLLAGLASLPTIIHRNVFFIENTNITVCAFHYESQNSTLPVGLGLTKNILGFLFPFLIILTSYTLIWKTLKKAYEIQKNKPRKDDIFKIILAIVLFFFFSWVPHQIFTFMDVLIQLGLIRDCKIEDIVDTAMPITICLAYFNNCLNPLFYGFLGKKFKKYFLQLLKYIPPKAKSHSNLSTKMSTLSYRPSENGNSSTKKPAPCIEVE

>  <PDB ID(s) of Target Chain>  (1) 


>  <UniProt (SwissProt) Recommended Name of Target Chain>  (1) 
Type-1 angiotensin II receptor

>  <UniProt (SwissProt) Entry Name of Target Chain>  (1) 
AGTR1_BOVIN

>  <UniProt (SwissProt) Primary ID of Target Chain>  (1) 
P25104

>  <UniProt (SwissProt) Secondary ID(s) of Target Chain>  (1) 


>  <UniProt (SwissProt) Alternative ID(s) of Target Chain>  (1) 


>  <UniProt (TrEMBL) Submitted Name of Target Chain>  (1) 


>  <UniProt (TrEMBL) Entry Name of Target Chain>  (1) 


>  <UniProt (TrEMBL) Primary ID of Target Chain>  (1) 


>  <UniProt (TrEMBL) Secondary ID(s) of Target Chain>  (1) 


>  <UniProt (TrEMBL) Alternative ID(s) of Target Chain>  (1) 


$$$$
