
     RDKit          2D

 31 33  0  0  0  0  0  0  0  0999 V2000
    1.3275   -1.9740    0.0000 N   0  0  0  0  0  0  0  0  0  0  0  0
    1.9970   -2.4547    0.0000 C   0  0  0  0  0  0  0  0  0  0  0  0
    0.9098   -3.2443    0.0000 N   0  0  0  0  0  0  0  0  0  0  0  0
   -0.8068    0.0972    0.0000 C   0  0  0  0  0  0  0  0  0  0  0  0
    3.3874   -2.7523    0.0000 C   0  0  0  0  0  0  0  0  0  0  0  0
    2.7808   -2.2030    0.0000 C   0  0  0  0  0  0  0  0  0  0  0  0
    0.6581   -2.4547    0.0000 C   0  0  0  0  0  0  0  0  0  0  0  0
    1.7395   -3.2443    0.0000 C   0  0  0  0  0  0  0  0  0  0  0  0
   -0.0972    0.5092    0.0000 C   0  0  0  0  0  0  0  0  0  0  0  0
   -1.5220    0.5092    0.0000 C   0  0  0  0  0  0  0  0  0  0  0  0
    4.1770   -2.4948    0.0000 C   0  0  0  0  0  0  0  0  0  0  0  0
    3.8337   -4.1083    0.0000 C   0  0  0  0  0  0  0  0  0  0  0  0
   -0.8010   -0.7381    0.0000 C   0  0  0  0  0  0  0  0  0  0  0  0
    1.3275   -1.1501    0.0000 C   0  0  0  0  0  0  0  0  0  0  0  0
    4.6405   -3.9367    0.0000 S   0  0  0  0  0  0  0  0  0  0  0  0
    3.2157   -3.5590    0.0000 C   0  0  0  0  0  0  0  0  0  0  0  0
    0.6237    0.0858    0.0000 C   0  0  0  0  0  0  0  0  0  0  0  0
    0.6180   -0.7267    0.0000 C   0  0  0  0  0  0  0  0  0  0  0  0
    5.0525   -4.6519    0.0000 C   0  0  0  0  0  0  0  0  0  0  0  0
   -1.5220    1.3331    0.0000 O   0  0  0  0  0  0  0  0  0  0  0  0
    4.3487   -1.6880    0.0000 O   0  0  0  0  0  0  0  0  0  0  0  0
    3.7479   -4.9265    0.0000 C   0  0  0  0  0  0  0  0  0  0  0  0
    4.5032   -5.2584    0.0000 C   0  0  0  0  0  0  0  0  0  0  0  0
   -0.0858    1.3331    0.0000 Cl  0  0  0  0  0  0  0  0  0  0  0  0
   -0.0972   -1.1387    0.0000 C   0  0  0  0  0  0  0  0  0  0  0  0
   -2.2315    0.0972    0.0000 O   0  0  0  0  0  0  0  0  0  0  0  0
    4.7892   -3.0441    0.0000 O   0  0  0  0  0  0  0  0  0  0  0  0
   -0.1316   -2.2030    0.0000 C   0  0  0  0  0  0  0  0  0  0  0  0
   -0.7381   -2.7523    0.0000 C   0  0  0  0  0  0  0  0  0  0  0  0
   -1.5220   -2.4948    0.0000 C   0  0  0  0  0  0  0  0  0  0  0  0
   -2.1399   -3.0441    0.0000 C   0  0  0  0  0  0  0  0  0  0  0  0
  2  1  1  0
  3  7  2  0
  4 13  2  0
  5  6  2  0
  6  2  1  0
  7  1  1  0
  8  2  2  0
  9 17  2  0
 10  4  1  0
 11  5  1  0
 12 16  1  0
 13 25  1  0
 14  1  1  0
 15 12  1  0
 16  5  1  0
 17 18  1  0
 18 14  1  0
 19 15  1  0
 20 10  2  0
 21 11  2  0
 22 12  2  0
 23 22  1  0
 24  9  1  0
 25 18  2  0
 26 10  1  0
 27 11  1  0
 28  7  1  0
 29 28  1  0
 30 29  1  0
 31 30  1  0
  3  8  1  0
  9  4  1  0
 23 19  2  0
M  END
>  <From>  (1) 
www.bindingDB.org

>  <BindingDB Reactant_set_id>  (1) 
50467534

>  <Ligand InChI>  (1) 
InChI=1S/C23H23ClN2O4S/c1-2-3-6-21-25-13-17(11-16(22(27)28)12-18-5-4-9-31-18)26(21)14-15-7-8-19(23(29)30)20(24)10-15/h4-5,7-11,13H,2-3,6,12,14H2,1H3,(H,27,28)(H,29,30)/b16-11+

>  <Ligand InChI Key>  (1) 
NORDAWTYFFGLEY-LFIBNONCSA-N

>  <BindingDB MonomerID>  (1) 
50048078

>  <BindingDB Ligand Name>  (1) 
4-[2-Butyl-5-((E)-2-carboxy-3-thiophen-2-yl-propenyl)-imidazol-1-ylmethyl]-2-chloro-benzoic acid::4-[2-Butyl-5-(2-carboxy-3-thiophen-2-yl-propenyl)-imidazol-1-ylmethyl]-2-chloro-benzoic acid::CHEMBL57309

>  <Target Name>  (1) 
Type-1 angiotensin II receptor B

>  <Target Source Organism According to Curator or DataSource>  (1) 
Rattus

>  <Ki (nM)>  (1) 


>  <IC50 (nM)>  (1) 
 1

>  <Kd (nM)>  (1) 


>  <EC50 (nM)>  (1) 


>  <kon (M-1-s-1)>  (1) 


>  <koff (s-1)>  (1) 


>  <pH>  (1) 


>  <Temp C>  (1) 


>  <Curation/DataSource>  (1) 
ChEMBL

>  <Article DOI>  (1) 
10.1016/S0960-894X(01)81116-1

>  <BindingDB Entry DOI>  (1) 
10.7270/Q29G5MRF

>  <PMID>  (1) 


>  <PubChem AID>  (1) 


>  <Patent Number>  (1) 


>  <Authors>  (1) 
Weinstock, J; Hill, DT; Keenan, RM; Franz, RG; Gaitanopoulos, DE; Girard, GR; Eggleston, DS; Aiyar, N; Griffin, E; Ohlstein, E; Brooks, DP; Gellai, M; Frederickson, TA; Weidley, EF; Edwards, RM

>  <Institution>  (1) 
TBA

>  <Link to Ligand in BindingDB>  (1) 
http://www.bindingdb.org/bind/chemsearch/marvin/MolStructure.jsp?monomerid=50048078

>  <Link to Ligand-Target Pair in BindingDB>  (1) 
http://www.bindingdb.org/jsp/dbsearch/PrimarySearch_ki.jsp?energyterm=kJ/mole&tag=r21&monomerid=50048078&enzyme=Type-1+angiotensin+II+receptor+B&column=ki&startPg=0&Increment=50&submit=Search

>  <Ligand HET ID in PDB>  (1) 


>  <PDB ID(s) for Ligand-Target Complex>  (1) 


>  <PubChem CID of Ligand>  (1) 
14952924

>  <PubChem SID of Ligand>  (1) 
103978611

>  <ChEBI ID of Ligand>  (1) 


>  <ChEMBL ID of Ligand>  (1) 
CHEMBL57309

>  <DrugBank ID of Ligand>  (1) 


>  <IUPHAR_GRAC ID of Ligand>  (1) 


>  <KEGG ID of Ligand>  (1) 


>  <ZINC ID of Ligand>  (1) 
ZINC01552611

>  <Number of Protein Chains in Target (bigger than 1 implies a multichain complex)>  (1) 
1

>  <BindingDB Target Chain Sequence>  (1) 
MTLNSSTEDGIKRIQDDCPKAGRHNYIFVMIPTLYSIIFVVGIFGNSLVVIVIYFYMKLKTVASVFLLNLALADLCFLLTLPLWAVYTAMEYRWPFGNHLCKIASASVSFNLYASVFLLTCLSIDRYLAIVHPMKSRLRRTMLVAKVTCIIIWLMAGLASLPAVIYRNVYFIENTNITVCAFHYESQNSTLPIGLGLTKNILGFVFPFLIILTSYTLIWKALKKAYKIQKNTPRNDDIFRIIMAIVLFFFFSWVPHQIFTFLDVLIQLGIIRDCEIADIVDTAMPITICIAYFNNCLNPLFYGFLGKKFKKYFLQLLKYIPPTAKSHAGLSTKMSTLSYRPSDNMSSSAKKSASFFEVE

>  <PDB ID(s) of Target Chain>  (1) 


>  <UniProt (SwissProt) Recommended Name of Target Chain>  (1) 
Type-1 angiotensin II receptor B

>  <UniProt (SwissProt) Entry Name of Target Chain>  (1) 
AGTRB_RAT

>  <UniProt (SwissProt) Primary ID of Target Chain>  (1) 
P29089

>  <UniProt (SwissProt) Secondary ID(s) of Target Chain>  (1) 


>  <UniProt (SwissProt) Alternative ID(s) of Target Chain>  (1) 


>  <UniProt (TrEMBL) Submitted Name of Target Chain>  (1) 


>  <UniProt (TrEMBL) Entry Name of Target Chain>  (1) 


>  <UniProt (TrEMBL) Primary ID of Target Chain>  (1) 


>  <UniProt (TrEMBL) Secondary ID(s) of Target Chain>  (1) 


>  <UniProt (TrEMBL) Alternative ID(s) of Target Chain>  (1) 


$$$$
