
     RDKit          2D

 25 26  0  0  0  0  0  0  0  0999 V2000
    4.5934   -3.9532    0.0000 N   0  0  0  0  0  0  0  0  0  0  0  0
    4.1902   -5.2170    0.0000 N   0  0  0  0  0  0  0  0  0  0  0  0
    3.9325   -4.4313    0.0000 C   0  0  0  0  0  0  0  0  0  0  0  0
    5.2669   -4.4313    0.0000 C   0  0  0  0  0  0  0  0  0  0  0  0
    5.0133   -5.2170    0.0000 C   0  0  0  0  0  0  0  0  0  0  0  0
    1.7376   -1.4840    0.0000 C   0  0  0  0  0  0  0  0  0  0  0  0
    4.5934   -3.1302    0.0000 C   0  0  0  0  0  0  0  0  0  0  0  0
    2.4485   -1.8956    0.0000 C   0  0  0  0  0  0  0  0  0  0  0  0
    7.6114   -3.6581    0.0000 C   0  0  0  0  0  0  0  0  0  0  0  0
    1.0268   -1.8956    0.0000 O   0  0  0  0  0  0  0  0  0  0  0  0
    6.9961   -3.1094    0.0000 O   0  0  0  0  0  0  0  0  0  0  0  0
    2.4485   -2.7186    0.0000 C   0  0  0  0  0  0  0  0  0  0  0  0
    3.1593   -1.4757    0.0000 C   0  0  0  0  0  0  0  0  0  0  0  0
    6.6594   -4.7264    0.0000 N   0  0  0  0  0  0  0  0  0  0  0  0
    3.8784   -2.7186    0.0000 C   0  0  0  0  0  0  0  0  0  0  0  0
    6.0483   -4.1777    0.0000 C   0  0  0  0  0  0  0  0  0  0  0  0
    1.7376   -0.6610    0.0000 O   0  0  0  0  0  0  0  0  0  0  0  0
    8.3929   -3.4045    0.0000 O   0  0  0  0  0  0  0  0  0  0  0  0
    3.8784   -1.8873    0.0000 C   0  0  0  0  0  0  0  0  0  0  0  0
    3.1593   -3.1302    0.0000 C   0  0  0  0  0  0  0  0  0  0  0  0
    7.4368   -4.4687    0.0000 C   0  0  0  0  0  0  0  0  0  0  0  0
    3.2175   -4.8429    0.0000 C   0  0  0  0  0  0  0  0  0  0  0  0
    2.4984   -4.4189    0.0000 C   0  0  0  0  0  0  0  0  0  0  0  0
    1.7875   -4.8262    0.0000 C   0  0  0  0  0  0  0  0  0  0  0  0
    1.0767   -4.4064    0.0000 C   0  0  0  0  0  0  0  0  0  0  0  0
  2  3  2  0
  3  1  1  0
  4  1  1  0
  5  4  2  0
  6  8  1  0
  7  1  1  0
  8 12  2  0
  9 21  1  0
 10  6  2  0
 11  9  2  0
 12 20  1  0
 13 19  2  0
 14 16  1  0
 15  7  1  0
 16  4  1  0
 17  6  1  0
 18  9  1  0
 19 15  1  0
 20 15  2  0
 21 14  1  0
 22  3  1  0
 23 22  1  0
 24 23  1  0
 25 24  1  0
  2  5  1  0
 13  8  1  0
M  END
>  <From>  (1) 
www.bindingDB.org

>  <BindingDB Reactant_set_id>  (1) 
50471371

>  <Ligand InChI>  (1) 
InChI=1S/C18H23N3O4/c1-2-3-4-16-20-10-15(9-19-11-17(22)23)21(16)12-13-5-7-14(8-6-13)18(24)25/h5-8,10,19H,2-4,9,11-12H2,1H3,(H,22,23)(H,24,25)

>  <Ligand InChI Key>  (1) 
VQDKOWMDOXRRNZ-UHFFFAOYSA-N

>  <BindingDB MonomerID>  (1) 
50284295

>  <BindingDB Ligand Name>  (1) 
4-{2-Butyl-5-[(carboxymethyl-amino)-methyl]-imidazol-1-ylmethyl}-benzoic acid::CHEMBL78345

>  <Target Name>  (1) 
Type-1 angiotensin II receptor

>  <Target Source Organism According to Curator or DataSource>  (1) 
Homo sapiens

>  <Ki (nM)>  (1) 


>  <IC50 (nM)>  (1) 
 298

>  <Kd (nM)>  (1) 


>  <EC50 (nM)>  (1) 


>  <kon (M-1-s-1)>  (1) 


>  <koff (s-1)>  (1) 


>  <pH>  (1) 


>  <Temp C>  (1) 


>  <Curation/DataSource>  (1) 
ChEMBL

>  <Article DOI>  (1) 
10.1016/0960-894X(94)00456-P

>  <BindingDB Entry DOI>  (1) 
10.7270/Q2GF0TF6

>  <PMID>  (1) 


>  <PubChem AID>  (1) 


>  <Patent Number>  (1) 


>  <Authors>  (1) 
Hill, DT; Girard, GR; Weinstock, J; Edwards, RM; Weidley, EF; Ohlstein, E; Peishoff, CE; Baker, E; Aiyar, N

>  <Institution>  (1) 
TBA

>  <Link to Ligand in BindingDB>  (1) 
http://www.bindingdb.org/bind/chemsearch/marvin/MolStructure.jsp?monomerid=50284295

>  <Link to Ligand-Target Pair in BindingDB>  (1) 
http://www.bindingdb.org/jsp/dbsearch/PrimarySearch_ki.jsp?energyterm=kJ/mole&tag=r21&monomerid=50284295&enzyme=Type-1+angiotensin+II+receptor&column=ki&startPg=0&Increment=50&submit=Search

>  <Ligand HET ID in PDB>  (1) 


>  <PDB ID(s) for Ligand-Target Complex>  (1) 


>  <PubChem CID of Ligand>  (1) 
44316861

>  <PubChem SID of Ligand>  (1) 
104125952

>  <ChEBI ID of Ligand>  (1) 


>  <ChEMBL ID of Ligand>  (1) 
CHEMBL78345

>  <DrugBank ID of Ligand>  (1) 


>  <IUPHAR_GRAC ID of Ligand>  (1) 


>  <KEGG ID of Ligand>  (1) 


>  <ZINC ID of Ligand>  (1) 
ZINC26480296

>  <Number of Protein Chains in Target (bigger than 1 implies a multichain complex)>  (1) 
1

>  <BindingDB Target Chain Sequence>  (1) 
MILNSSTEDGIKRIQDDCPKAGRHNYIFVMIPTLYSIIFVVGIFGNSLVVIVIYFYMKLKTVASVFLLNLALADLCFLLTLPLWAVYTAMEYRWPFGNYLCKIASASVSFNLYASVFLLTCLSIDRYLAIVHPMKSRLRRTMLVAKVTCIIIWLLAGLASLPAIIHRNVFFIENTNITVCAFHYESQNSTLPIGLGLTKNILGFLFPFLIILTSYTLIWKALKKAYEIQKNKPRNDDIFKIIMAIVLFFFFSWIPHQIFTFLDVLIQLGIIRDCRIADIVDTAMPITICIAYFNNCLNPLFYGFLGKKFKRYFLQLLKYIPPKAKSHSNLSTKMSTLSYRPSDNVSSSTKKPAPCFEVE

>  <PDB ID(s) of Target Chain>  (1) 
6DO1,6OS0,6OS1,6OS2

>  <UniProt (SwissProt) Recommended Name of Target Chain>  (1) 
Type-1 angiotensin II receptor

>  <UniProt (SwissProt) Entry Name of Target Chain>  (1) 
AGTR1_HUMAN

>  <UniProt (SwissProt) Primary ID of Target Chain>  (1) 
P30556

>  <UniProt (SwissProt) Secondary ID(s) of Target Chain>  (1) 
Q13725 Q8TBK4

>  <UniProt (SwissProt) Alternative ID(s) of Target Chain>  (1) 


>  <UniProt (TrEMBL) Submitted Name of Target Chain>  (1) 


>  <UniProt (TrEMBL) Entry Name of Target Chain>  (1) 


>  <UniProt (TrEMBL) Primary ID of Target Chain>  (1) 


>  <UniProt (TrEMBL) Secondary ID(s) of Target Chain>  (1) 


>  <UniProt (TrEMBL) Alternative ID(s) of Target Chain>  (1) 


$$$$
