
     RDKit          2D

 31 34  0  0  0  0  0  0  0  0999 V2000
    2.0792   -1.7542    0.0000 C   0  0  0  0  0  0  0  0  0  0  0  0
    1.4167   -2.2417    0.0000 N   0  0  0  0  0  0  0  0  0  0  0  0
    1.8292   -0.9667    0.0000 N   0  0  0  0  0  0  0  0  0  0  0  0
    2.9042   -1.7542    0.0000 S   0  0  0  0  0  0  0  0  0  0  0  0
    1.0042   -0.9667    0.0000 N   0  0  0  0  0  0  0  0  0  0  0  0
    4.9750   -3.4750    0.0000 C   0  0  0  0  0  0  0  0  0  0  0  0
    4.5417   -2.2042    0.0000 N   0  0  0  0  0  0  0  0  0  0  0  0
    0.7500   -1.7542    0.0000 C   0  0  0  0  0  0  0  0  0  0  0  0
    4.3000   -2.9917    0.0000 N   0  0  0  0  0  0  0  0  0  0  0  0
    5.3750   -2.2000    0.0000 N   0  0  0  0  0  0  0  0  0  0  0  0
    5.6375   -2.9792    0.0000 N   0  0  0  0  0  0  0  0  0  0  0  0
    4.9792   -4.3042    0.0000 C   0  0  0  0  0  0  0  0  0  0  0  0
    4.2750   -4.7167    0.0000 C   0  0  0  0  0  0  0  0  0  0  0  0
    1.4167   -3.0667    0.0000 C   0  0  0  0  0  0  0  0  0  0  0  0
    3.3167   -1.0375    0.0000 O   0  0  0  0  0  0  0  0  0  0  0  0
    3.3167   -2.4667    0.0000 O   0  0  0  0  0  0  0  0  0  0  0  0
    3.5542   -4.3042    0.0000 C   0  0  0  0  0  0  0  0  0  0  0  0
    3.5542   -3.4792    0.0000 C   0  0  0  0  0  0  0  0  0  0  0  0
    2.8500   -4.7167    0.0000 C   0  0  0  0  0  0  0  0  0  0  0  0
    2.1292   -3.4792    0.0000 C   0  0  0  0  0  0  0  0  0  0  0  0
    3.7292   -1.7542    0.0000 C   0  0  0  0  0  0  0  0  0  0  0  0
    2.8417   -3.0667    0.0000 C   0  0  0  0  0  0  0  0  0  0  0  0
    2.1292   -4.3042    0.0000 C   0  0  0  0  0  0  0  0  0  0  0  0
   -0.0750   -1.7542    0.0000 C   0  0  0  0  0  0  0  0  0  0  0  0
    5.6917   -4.7125    0.0000 C   0  0  0  0  0  0  0  0  0  0  0  0
    4.2667   -5.5417    0.0000 C   0  0  0  0  0  0  0  0  0  0  0  0
   -0.4875   -1.0417    0.0000 C   0  0  0  0  0  0  0  0  0  0  0  0
   -1.3125   -1.0417    0.0000 C   0  0  0  0  0  0  0  0  0  0  0  0
    5.7000   -5.5417    0.0000 C   0  0  0  0  0  0  0  0  0  0  0  0
    4.9792   -5.9542    0.0000 C   0  0  0  0  0  0  0  0  0  0  0  0
   -1.7250   -0.3250    0.0000 C   0  0  0  0  0  0  0  0  0  0  0  0
  2  1  1  0
  3  1  2  0
  4  1  1  0
  5  3  1  0
  6 12  1  0
  7  9  1  0
  8  2  1  0
  9  6  1  0
 10 11  1  0
 11  6  2  0
 12 13  1  0
 13 17  1  0
 14  2  1  0
 15  4  2  0
 16  4  2  0
 17 19  2  0
 18 22  2  0
 19 23  1  0
 20 14  1  0
 21  4  1  0
 22 20  1  0
 23 20  2  0
 24  8  1  0
 25 12  2  0
 26 13  2  0
 27 24  1  0
 28 27  1  0
 29 30  2  0
 30 26  1  0
 31 28  1  0
  5  8  2  0
 17 18  1  0
 25 29  1  0
 10  7  2  0
M  END
>  <From>  (1) 
www.bindingDB.org

>  <BindingDB Reactant_set_id>  (1) 
50034912

>  <Ligand InChI>  (1) 
InChI=1S/C21H23N7O2S/c1-3-4-9-19-22-25-21(31(2,29)30)28(19)14-15-10-12-16(13-11-15)17-7-5-6-8-18(17)20-23-26-27-24-20/h5-8,10-13H,3-4,9,14H2,1-2H3,(H,23,24,26,27)

>  <Ligand InChI Key>  (1) 
AAXLFCQNXVFETP-UHFFFAOYSA-N

>  <BindingDB MonomerID>  (1) 
50047877

>  <BindingDB Ligand Name>  (1) 
5-[4'-(3-Butyl-5-methanesulfonyl-[1,2,4]triazol-4-ylmethyl)-biphenyl-2-yl]-1H-tetrazole::CHEMBL156307

>  <Target Name>  (1) 
Type-1 angiotensin II receptor

>  <Target Source Organism According to Curator or DataSource>  (1) 
Oryctolagus cuniculus

>  <Ki (nM)>  (1) 


>  <IC50 (nM)>  (1) 
 400

>  <Kd (nM)>  (1) 


>  <EC50 (nM)>  (1) 


>  <kon (M-1-s-1)>  (1) 


>  <koff (s-1)>  (1) 


>  <pH>  (1) 


>  <Temp C>  (1) 


>  <Curation/DataSource>  (1) 
ChEMBL

>  <Article DOI>  (1) 
10.1021/jm00057a009

>  <BindingDB Entry DOI>  (1) 
10.7270/Q2P55MKH

>  <PMID>  (1) 
8496939

>  <PubChem AID>  (1) 


>  <Patent Number>  (1) 


>  <Authors>  (1) 
Ashton, WT; Cantone, CL; Chang, LL; Hutchins, SM; Strelitz, RA; MacCoss, M; Chang, RS; Lotti, VJ; Faust, KA; Chen, TB

>  <Institution>  (1) 
Merck Research Laboratories

>  <Link to Ligand in BindingDB>  (1) 
http://www.bindingdb.org/bind/chemsearch/marvin/MolStructure.jsp?monomerid=50047877

>  <Link to Ligand-Target Pair in BindingDB>  (1) 
http://www.bindingdb.org/jsp/dbsearch/PrimarySearch_ki.jsp?energyterm=kJ/mole&tag=r21&monomerid=50047877&enzyme=Type-1+angiotensin+II+receptor&column=ki&startPg=0&Increment=50&submit=Search

>  <Ligand HET ID in PDB>  (1) 


>  <PDB ID(s) for Ligand-Target Complex>  (1) 


>  <PubChem CID of Ligand>  (1) 
10094614

>  <PubChem SID of Ligand>  (1) 
103978441

>  <ChEBI ID of Ligand>  (1) 


>  <ChEMBL ID of Ligand>  (1) 
CHEMBL156307

>  <DrugBank ID of Ligand>  (1) 


>  <IUPHAR_GRAC ID of Ligand>  (1) 


>  <KEGG ID of Ligand>  (1) 


>  <ZINC ID of Ligand>  (1) 
ZINC13825664

>  <Number of Protein Chains in Target (bigger than 1 implies a multichain complex)>  (1) 
1

>  <BindingDB Target Chain Sequence>  (1) 
MMLNSSTEDGIKRIQDDCPKAGRHNYIFVMIPTLYSIIFVVGIFGNSLAVIVIYFYMKLKTVASVFLLNLALADLCFLLTLPLWAVYTAMEYRWPFGNYLCKIASASVSFNLYASVFLLTCLSIDRYLAIVHPMKSRLRRTMLVAKVTCIIIWLLAGLASLPAIIHRNVFFIENTNITVCAFHYESQNSTLPIGLGLTKNILGFLFPFLIILTSYTLIWKALKKAYEIQKNKPRNDDIFKIIMAIVLFFFFSWVPHQIFTFLDVLIQLGVIHDCRIADIVDTAMPITICIAYFNNCLNPLFYGFLGKKFKKYFLQLLKYIPPKAKSHSNLSTKMSTLSYRPSDNVSSSSKKPVPCFEVE

>  <PDB ID(s) of Target Chain>  (1) 
6DO1,6OS0,6OS1,6OS2

>  <UniProt (SwissProt) Recommended Name of Target Chain>  (1) 
Type-1 angiotensin II receptor

>  <UniProt (SwissProt) Entry Name of Target Chain>  (1) 
AGTR1_RABIT

>  <UniProt (SwissProt) Primary ID of Target Chain>  (1) 
P34976

>  <UniProt (SwissProt) Secondary ID(s) of Target Chain>  (1) 


>  <UniProt (SwissProt) Alternative ID(s) of Target Chain>  (1) 


>  <UniProt (TrEMBL) Submitted Name of Target Chain>  (1) 


>  <UniProt (TrEMBL) Entry Name of Target Chain>  (1) 


>  <UniProt (TrEMBL) Primary ID of Target Chain>  (1) 


>  <UniProt (TrEMBL) Secondary ID(s) of Target Chain>  (1) 


>  <UniProt (TrEMBL) Alternative ID(s) of Target Chain>  (1) 


$$$$
