
     RDKit          2D

 52 56  0  0  0  0  0  0  0  0999 V2000
    1.5086   -0.1944    0.0000 N   0  0  0  0  0  0  0  0  0  0  0  0
    1.1030   -1.4706    0.0000 N   0  0  0  0  0  0  0  0  0  0  0  0
    4.6569   -2.6792    0.0000 S   0  0  0  0  0  0  0  0  0  0  0  0
    1.7664   -0.9804    0.0000 C   0  0  0  0  0  0  0  0  0  0  0  0
    0.6846   -0.2028    0.0000 N   0  0  0  0  0  0  0  0  0  0  0  0
    0.4353   -0.9804    0.0000 C   0  0  0  0  0  0  0  0  0  0  0  0
    4.6569   -1.8552    0.0000 N   0  0  0  0  0  0  0  0  0  0  0  0
    1.9820    0.4648    0.0000 C   0  0  0  0  0  0  0  0  0  0  0  0
    5.3669   -1.4452    0.0000 C   0  0  0  0  0  0  0  0  0  0  0  0
    4.6696   -3.5033    0.0000 C   0  0  0  0  0  0  0  0  0  0  0  0
    6.0852   -1.8509    0.0000 C   0  0  0  0  0  0  0  0  0  0  0  0
    3.9597   -3.9174    0.0000 C   0  0  0  0  0  0  0  0  0  0  0  0
    2.8144    0.3887    0.0000 C   0  0  0  0  0  0  0  0  0  0  0  0
    1.1030   -2.2862    0.0000 C   0  0  0  0  0  0  0  0  0  0  0  0
    3.8329   -2.6919    0.0000 O   0  0  0  0  0  0  0  0  0  0  0  0
    5.4894   -2.6792    0.0000 O   0  0  0  0  0  0  0  0  0  0  0  0
    2.5525   -1.2297    0.0000 O   0  0  0  0  0  0  0  0  0  0  0  0
    1.6523    1.2128    0.0000 C   0  0  0  0  0  0  0  0  0  0  0  0
    5.3880   -3.9090    0.0000 C   0  0  0  0  0  0  0  0  0  0  0  0
    3.2497   -3.5160    0.0000 C   0  0  0  0  0  0  0  0  0  0  0  0
    4.6146    1.6565    0.0000 C   0  0  0  0  0  0  0  0  0  0  0  0
    4.1245    0.9719    0.0000 N   0  0  0  0  0  0  0  0  0  0  0  0
    6.7868   -1.4368    0.0000 C   0  0  0  0  0  0  0  0  0  0  0  0
    3.2878    1.0522    0.0000 C   0  0  0  0  0  0  0  0  0  0  0  0
    3.9681   -4.7457    0.0000 C   0  0  0  0  0  0  0  0  0  0  0  0
    5.3626   -0.6212    0.0000 O   0  0  0  0  0  0  0  0  0  0  0  0
    4.2724    2.4172    0.0000 O   0  0  0  0  0  0  0  0  0  0  0  0
    2.1298    1.8847    0.0000 C   0  0  0  0  0  0  0  0  0  0  0  0
    3.2370   -2.6877    0.0000 C   0  0  0  0  0  0  0  0  0  0  0  0
    2.5398   -3.9301    0.0000 C   0  0  0  0  0  0  0  0  0  0  0  0
    1.8172   -2.7003    0.0000 C   0  0  0  0  0  0  0  0  0  0  0  0
    5.3922   -4.7330    0.0000 C   0  0  0  0  0  0  0  0  0  0  0  0
    4.6823   -5.1514    0.0000 C   0  0  0  0  0  0  0  0  0  0  0  0
    2.9539    1.8086    0.0000 C   0  0  0  0  0  0  0  0  0  0  0  0
    0.8156    1.2931    0.0000 Cl  0  0  0  0  0  0  0  0  0  0  0  0
    6.7868   -0.6128    0.0000 Cl  0  0  0  0  0  0  0  0  0  0  0  0
   -0.3507   -1.2424    0.0000 C   0  0  0  0  0  0  0  0  0  0  0  0
    2.5271   -2.2820    0.0000 C   0  0  0  0  0  0  0  0  0  0  0  0
    1.8172   -3.5244    0.0000 C   0  0  0  0  0  0  0  0  0  0  0  0
    6.0895   -2.6750    0.0000 C   0  0  0  0  0  0  0  0  0  0  0  0
    5.4430    1.5678    0.0000 C   0  0  0  0  0  0  0  0  0  0  0  0
    7.5094   -1.8383    0.0000 C   0  0  0  0  0  0  0  0  0  0  0  0
    4.6823   -5.9881    0.0000 C   0  0  0  0  0  0  0  0  0  0  0  0
   -0.9719   -0.6889    0.0000 C   0  0  0  0  0  0  0  0  0  0  0  0
    5.9374    2.2524    0.0000 C   0  0  0  0  0  0  0  0  0  0  0  0
   -1.7495   -0.9508    0.0000 C   0  0  0  0  0  0  0  0  0  0  0  0
    6.7698    2.1763    0.0000 C   0  0  0  0  0  0  0  0  0  0  0  0
    6.7995   -3.0807    0.0000 C   0  0  0  0  0  0  0  0  0  0  0  0
    3.9597   -6.4064    0.0000 C   0  0  0  0  0  0  0  0  0  0  0  0
   -2.3665   -0.4057    0.0000 C   0  0  0  0  0  0  0  0  0  0  0  0
    7.2558    2.8482    0.0000 C   0  0  0  0  0  0  0  0  0  0  0  0
    7.5178   -2.6666    0.0000 C   0  0  0  0  0  0  0  0  0  0  0  0
  2  4  1  0
  3 10  1  0
  4  1  1  0
  5  1  1  0
  6  5  2  0
  7  3  1  0
  8  1  1  0
  9  7  1  0
 10 12  1  0
 11  9  1  0
 12 20  1  0
 13  8  2  0
 14  2  1  0
 15  3  2  0
 16  3  2  0
 17  4  2  0
 18  8  1  0
 19 10  2  0
 20 30  2  0
 21 22  1  0
 22 24  1  0
 23 11  2  0
 24 13  1  0
 25 12  2  0
 26  9  2  0
 27 21  2  0
 28 18  2  0
 29 38  2  0
 30 39  1  0
 31 14  1  0
 32 33  2  0
 33 25  1  0
 34 28  1  0
 35 18  1  0
 36 23  1  0
 37  6  1  0
 38 31  1  0
 39 31  2  0
 40 11  1  0
 41 21  1  0
 42 23  1  0
 43 33  1  0
 44 37  1  0
 45 41  1  0
 46 44  1  0
 47 45  1  0
 48 40  2  0
 49 43  1  0
 50 46  1  0
 51 47  1  0
 52 48  1  0
  2  6  1  0
 34 24  2  0
 20 29  1  0
 19 32  1  0
 52 42  2  0
M  END
>  <From>  (1) 
www.bindingDB.org

>  <BindingDB Reactant_set_id>  (1) 
50470343

>  <Ligand InChI>  (1) 
InChI=1S/C39H41Cl2N5O5S/c1-4-7-13-36-43-46(34-24-29(20-21-33(34)41)42-37(47)14-8-5-2)39(49)45(36)25-27-15-18-28(19-16-27)31-23-26(6-3)17-22-35(31)52(50,51)44-38(48)30-11-9-10-12-32(30)40/h9-12,15-24H,4-8,13-14,25H2,1-3H3,(H,42,47)(H,44,48)

>  <Ligand InChI Key>  (1) 
KHWXAAJKLFETOS-UHFFFAOYSA-N

>  <BindingDB MonomerID>  (1) 
50283767

>  <BindingDB Ligand Name>  (1) 
CHEMBL94793::Pentanoic acid (3-{3-butyl-4-[2'-(2-chloro-benzoylsulfamoyl)-5'-ethyl-biphenyl-4-ylmethyl]-5-oxo-4,5-dihydro-[1,2,4]triazol-1-yl}-4-chloro-phenyl)-amide

>  <Target Name>  (1) 
Type-1 angiotensin II receptor

>  <Target Source Organism According to Curator or DataSource>  (1) 
Oryctolagus cuniculus

>  <Ki (nM)>  (1) 


>  <IC50 (nM)>  (1) 
 1

>  <Kd (nM)>  (1) 


>  <EC50 (nM)>  (1) 


>  <kon (M-1-s-1)>  (1) 


>  <koff (s-1)>  (1) 


>  <pH>  (1) 


>  <Temp C>  (1) 


>  <Curation/DataSource>  (1) 
ChEMBL

>  <Article DOI>  (1) 
10.1016/S0960-894X(01)80595-3

>  <BindingDB Entry DOI>  (1) 
10.7270/Q2WS8T68

>  <PMID>  (1) 


>  <PubChem AID>  (1) 


>  <Patent Number>  (1) 


>  <Authors>  (1) 
Chang, LL; Ashton, WT; Flanagan, KL; Rivero, RA; Chen, TB; O'Malley, SS; Zingaro, GJ; Kivlighn, SD; Siegl, PK; Lotti, VJ; Chang, RS; Greenlee, WJ

>  <Institution>  (1) 
TBA

>  <Link to Ligand in BindingDB>  (1) 
http://www.bindingdb.org/bind/chemsearch/marvin/MolStructure.jsp?monomerid=50283767

>  <Link to Ligand-Target Pair in BindingDB>  (1) 
http://www.bindingdb.org/jsp/dbsearch/PrimarySearch_ki.jsp?energyterm=kJ/mole&tag=r21&monomerid=50283767&enzyme=Type-1+angiotensin+II+receptor&column=ki&startPg=0&Increment=50&submit=Search

>  <Ligand HET ID in PDB>  (1) 


>  <PDB ID(s) for Ligand-Target Complex>  (1) 


>  <PubChem CID of Ligand>  (1) 
19939454

>  <PubChem SID of Ligand>  (1) 
104125424

>  <ChEBI ID of Ligand>  (1) 


>  <ChEMBL ID of Ligand>  (1) 
CHEMBL94793

>  <DrugBank ID of Ligand>  (1) 


>  <IUPHAR_GRAC ID of Ligand>  (1) 


>  <KEGG ID of Ligand>  (1) 


>  <ZINC ID of Ligand>  (1) 
ZINC95541833

>  <Number of Protein Chains in Target (bigger than 1 implies a multichain complex)>  (1) 
1

>  <BindingDB Target Chain Sequence>  (1) 
MMLNSSTEDGIKRIQDDCPKAGRHNYIFVMIPTLYSIIFVVGIFGNSLAVIVIYFYMKLKTVASVFLLNLALADLCFLLTLPLWAVYTAMEYRWPFGNYLCKIASASVSFNLYASVFLLTCLSIDRYLAIVHPMKSRLRRTMLVAKVTCIIIWLLAGLASLPAIIHRNVFFIENTNITVCAFHYESQNSTLPIGLGLTKNILGFLFPFLIILTSYTLIWKALKKAYEIQKNKPRNDDIFKIIMAIVLFFFFSWVPHQIFTFLDVLIQLGVIHDCRIADIVDTAMPITICIAYFNNCLNPLFYGFLGKKFKKYFLQLLKYIPPKAKSHSNLSTKMSTLSYRPSDNVSSSSKKPVPCFEVE

>  <PDB ID(s) of Target Chain>  (1) 
6DO1,6OS0,6OS1,6OS2

>  <UniProt (SwissProt) Recommended Name of Target Chain>  (1) 
Type-1 angiotensin II receptor

>  <UniProt (SwissProt) Entry Name of Target Chain>  (1) 
AGTR1_RABIT

>  <UniProt (SwissProt) Primary ID of Target Chain>  (1) 
P34976

>  <UniProt (SwissProt) Secondary ID(s) of Target Chain>  (1) 


>  <UniProt (SwissProt) Alternative ID(s) of Target Chain>  (1) 


>  <UniProt (TrEMBL) Submitted Name of Target Chain>  (1) 


>  <UniProt (TrEMBL) Entry Name of Target Chain>  (1) 


>  <UniProt (TrEMBL) Primary ID of Target Chain>  (1) 


>  <UniProt (TrEMBL) Secondary ID(s) of Target Chain>  (1) 


>  <UniProt (TrEMBL) Alternative ID(s) of Target Chain>  (1) 


$$$$
