
     RDKit          2D

 36 40  0  0  0  0  0  0  0  0999 V2000
    0.0573   -8.5977    0.0000 N   0  0  0  0  0  0  0  0  0  0  0  0
    0.3838   -7.8358    0.0000 C   0  0  0  0  0  0  0  0  0  0  0  0
   -0.2348   -7.2917    0.0000 N   0  0  0  0  0  0  0  0  0  0  0  0
   -0.9451   -7.7155    0.0000 N   0  0  0  0  0  0  0  0  0  0  0  0
   -0.7675   -8.5232    0.0000 C   0  0  0  0  0  0  0  0  0  0  0  0
    3.7518   -7.8244    0.0000 C   0  0  0  0  0  0  0  0  0  0  0  0
    2.9270   -7.7557    0.0000 N   0  0  0  0  0  0  0  0  0  0  0  0
    2.7380   -6.9594    0.0000 N   0  0  0  0  0  0  0  0  0  0  0  0
    4.0611   -7.0683    0.0000 N   0  0  0  0  0  0  0  0  0  0  0  0
    3.4425   -6.5298    0.0000 N   0  0  0  0  0  0  0  0  0  0  0  0
    4.1814   -8.5289    0.0000 C   0  0  0  0  0  0  0  0  0  0  0  0
    3.7862   -9.2506    0.0000 C   0  0  0  0  0  0  0  0  0  0  0  0
    0.4869   -9.3022    0.0000 C   0  0  0  0  0  0  0  0  0  0  0  0
   -0.1661   -6.4669    0.0000 C   0  0  0  0  0  0  0  0  0  0  0  0
    1.1915   -7.6526    0.0000 O   0  0  0  0  0  0  0  0  0  0  0  0
    2.9614   -9.2678    0.0000 C   0  0  0  0  0  0  0  0  0  0  0  0
   -0.8362   -6.0029    0.0000 C   0  0  0  0  0  0  0  0  0  0  0  0
    0.5900   -6.1232    0.0000 C   0  0  0  0  0  0  0  0  0  0  0  0
    2.5432   -8.5633    0.0000 C   0  0  0  0  0  0  0  0  0  0  0  0
    2.5662   -9.9895    0.0000 C   0  0  0  0  0  0  0  0  0  0  0  0
    1.3117   -9.2964    0.0000 C   0  0  0  0  0  0  0  0  0  0  0  0
   -1.3060   -9.1418    0.0000 C   0  0  0  0  0  0  0  0  0  0  0  0
    1.7070   -8.5747    0.0000 C   0  0  0  0  0  0  0  0  0  0  0  0
    1.7356  -10.0010    0.0000 C   0  0  0  0  0  0  0  0  0  0  0  0
   -0.7675   -5.1781    0.0000 C   0  0  0  0  0  0  0  0  0  0  0  0
    0.6588   -5.3098    0.0000 C   0  0  0  0  0  0  0  0  0  0  0  0
   -0.0114   -4.8344    0.0000 C   0  0  0  0  0  0  0  0  0  0  0  0
    5.0063   -8.5117    0.0000 C   0  0  0  0  0  0  0  0  0  0  0  0
    4.2100   -9.9552    0.0000 C   0  0  0  0  0  0  0  0  0  0  0  0
    0.0573   -4.0096    0.0000 C   0  0  0  0  0  0  0  0  0  0  0  0
   -2.1136   -8.9757    0.0000 C   0  0  0  0  0  0  0  0  0  0  0  0
   -2.6577   -9.5943    0.0000 C   0  0  0  0  0  0  0  0  0  0  0  0
    5.0348   -9.9380    0.0000 C   0  0  0  0  0  0  0  0  0  0  0  0
    5.4358   -9.2163    0.0000 C   0  0  0  0  0  0  0  0  0  0  0  0
    0.8076   -3.6659    0.0000 C   0  0  0  0  0  0  0  0  0  0  0  0
   -3.4653   -9.4397    0.0000 C   0  0  0  0  0  0  0  0  0  0  0  0
  2  1  1  0
  3  2  1  0
  4  5  2  0
  5  1  1  0
  6 11  1  0
  7  6  1  0
  8  7  1  0
  9  6  2  0
 10  9  1  0
 11 12  1  0
 12 16  1  0
 13  1  1  0
 14  3  1  0
 15  2  2  0
 16 20  2  0
 17 14  2  0
 18 14  1  0
 19 23  2  0
 20 24  1  0
 21 13  1  0
 22  5  1  0
 23 21  1  0
 24 21  2  0
 25 17  1  0
 26 18  2  0
 27 26  1  0
 28 11  2  0
 29 12  2  0
 30 27  1  0
 31 22  1  0
 32 31  1  0
 33 29  1  0
 34 33  2  0
 35 30  1  0
 36 32  1  0
  4  3  1  0
 19 16  1  0
 27 25  2  0
 28 34  1  0
  8 10  2  0
M  END
>  <From>  (1) 
www.bindingDB.org

>  <BindingDB Reactant_set_id>  (1) 
50060452

>  <Ligand InChI>  (1) 
InChI=1S/C28H29N7O/c1-3-5-10-26-31-35(23-17-13-20(4-2)14-18-23)28(36)34(26)19-21-11-15-22(16-12-21)24-8-6-7-9-25(24)27-29-32-33-30-27/h6-9,11-18H,3-5,10,19H2,1-2H3,(H,29,30,32,33)

>  <Ligand InChI Key>  (1) 
RXKWCSFAWJEECE-UHFFFAOYSA-N

>  <BindingDB MonomerID>  (1) 
50044535

>  <BindingDB Ligand Name>  (1) 
5-Butyl-2-(4-ethyl-phenyl)-4-[2'-(2H-tetrazol-5-yl)-biphenyl-4-ylmethyl]-2,4-dihydro-[1,2,4]triazol-3-one::CHEMBL86613

>  <Target Name>  (1) 
Type-1 angiotensin II receptor

>  <Target Source Organism According to Curator or DataSource>  (1) 
Oryctolagus cuniculus

>  <Ki (nM)>  (1) 


>  <IC50 (nM)>  (1) 
 27

>  <Kd (nM)>  (1) 


>  <EC50 (nM)>  (1) 


>  <kon (M-1-s-1)>  (1) 


>  <koff (s-1)>  (1) 


>  <pH>  (1) 


>  <Temp C>  (1) 


>  <Curation/DataSource>  (1) 
ChEMBL

>  <Article DOI>  (1) 
10.1021/jm00069a015

>  <BindingDB Entry DOI>  (1) 
10.7270/Q2KP817C

>  <PMID>  (1) 
8355255

>  <PubChem AID>  (1) 


>  <Patent Number>  (1) 


>  <Authors>  (1) 
Chang, LL; Ashton, WT; Flanagan, KL; Strelitz, RA; MacCoss, M; Greenlee, WJ; Chang, RS; Lotti, VJ; Faust, KA; Chen, TB

>  <Institution>  (1) 
Merck Research Laboratories

>  <Link to Ligand in BindingDB>  (1) 
http://www.bindingdb.org/bind/chemsearch/marvin/MolStructure.jsp?monomerid=50044535

>  <Link to Ligand-Target Pair in BindingDB>  (1) 
http://www.bindingdb.org/jsp/dbsearch/PrimarySearch_ki.jsp?energyterm=kJ/mole&tag=r21&monomerid=50044535&enzyme=Type-1+angiotensin+II+receptor&column=ki&startPg=0&Increment=50&submit=Search

>  <Ligand HET ID in PDB>  (1) 


>  <PDB ID(s) for Ligand-Target Complex>  (1) 


>  <PubChem CID of Ligand>  (1) 
14956749

>  <PubChem SID of Ligand>  (1) 
103975773

>  <ChEBI ID of Ligand>  (1) 


>  <ChEMBL ID of Ligand>  (1) 
CHEMBL86613

>  <DrugBank ID of Ligand>  (1) 


>  <IUPHAR_GRAC ID of Ligand>  (1) 


>  <KEGG ID of Ligand>  (1) 


>  <ZINC ID of Ligand>  (1) 
ZINC13832643

>  <Number of Protein Chains in Target (bigger than 1 implies a multichain complex)>  (1) 
1

>  <BindingDB Target Chain Sequence>  (1) 
MMLNSSTEDGIKRIQDDCPKAGRHNYIFVMIPTLYSIIFVVGIFGNSLAVIVIYFYMKLKTVASVFLLNLALADLCFLLTLPLWAVYTAMEYRWPFGNYLCKIASASVSFNLYASVFLLTCLSIDRYLAIVHPMKSRLRRTMLVAKVTCIIIWLLAGLASLPAIIHRNVFFIENTNITVCAFHYESQNSTLPIGLGLTKNILGFLFPFLIILTSYTLIWKALKKAYEIQKNKPRNDDIFKIIMAIVLFFFFSWVPHQIFTFLDVLIQLGVIHDCRIADIVDTAMPITICIAYFNNCLNPLFYGFLGKKFKKYFLQLLKYIPPKAKSHSNLSTKMSTLSYRPSDNVSSSSKKPVPCFEVE

>  <PDB ID(s) of Target Chain>  (1) 
6DO1,6OS0,6OS1,6OS2

>  <UniProt (SwissProt) Recommended Name of Target Chain>  (1) 
Type-1 angiotensin II receptor

>  <UniProt (SwissProt) Entry Name of Target Chain>  (1) 
AGTR1_RABIT

>  <UniProt (SwissProt) Primary ID of Target Chain>  (1) 
P34976

>  <UniProt (SwissProt) Secondary ID(s) of Target Chain>  (1) 


>  <UniProt (SwissProt) Alternative ID(s) of Target Chain>  (1) 


>  <UniProt (TrEMBL) Submitted Name of Target Chain>  (1) 


>  <UniProt (TrEMBL) Entry Name of Target Chain>  (1) 


>  <UniProt (TrEMBL) Primary ID of Target Chain>  (1) 


>  <UniProt (TrEMBL) Secondary ID(s) of Target Chain>  (1) 


>  <UniProt (TrEMBL) Alternative ID(s) of Target Chain>  (1) 


$$$$
