 
     RDKit          2D

 39 44  0  0  0  0  0  0  0  0999 V2000
    8.7105  -15.9223    0.0000 C   0  0  0  0  0  0  0  0  0  0  0  0
    9.5355  -15.9223    0.0000 C   0  0  0  0  0  0  0  0  0  0  0  0
    9.9480  -16.6340    0.0000 C   0  0  0  0  0  0  0  0  0  0  0  0
   10.7730  -16.6340    0.0000 C   0  0  0  0  0  0  0  0  0  0  0  0
   11.2577  -15.9685    0.0000 N   0  0  0  0  0  0  0  0  0  0  0  0
   12.0424  -16.2215    0.0000 C   0  0  0  0  0  0  0  0  0  0  0  0
   12.7582  -15.8090    0.0000 C   0  0  0  0  0  0  0  0  0  0  0  0
   13.4741  -16.2215    0.0000 C   0  0  0  0  0  0  0  0  0  0  0  0
   13.4741  -17.0465    0.0000 C   0  0  0  0  0  0  0  0  0  0  0  0
   12.7582  -17.4590    0.0000 C   0  0  0  0  0  0  0  0  0  0  0  0
   12.0424  -17.0465    0.0000 C   0  0  0  0  0  0  0  0  0  0  0  0
   11.2577  -17.3036    0.0000 N   0  0  0  0  0  0  0  0  0  0  0  0
   11.0048  -18.0882    0.0000 C   0  0  0  0  0  0  0  0  0  0  0  0
   10.1988  -18.2606    0.0000 C   0  0  0  0  0  0  0  0  0  0  0  0
    9.9417  -19.0453    0.0000 C   0  0  0  0  0  0  0  0  0  0  0  0
    9.1356  -19.2177    0.0000 C   0  0  0  0  0  0  0  0  0  0  0  0
    8.5826  -18.6012    0.0000 C   0  0  0  0  0  0  0  0  0  0  0  0
    8.8397  -17.8207    0.0000 C   0  0  0  0  0  0  0  0  0  0  0  0
    9.6457  -17.6483    0.0000 C   0  0  0  0  0  0  0  0  0  0  0  0
    7.7765  -18.7736    0.0000 C   0  0  0  0  0  0  0  0  0  0  0  0
    7.5236  -19.5583    0.0000 C   0  0  0  0  0  0  0  0  0  0  0  0
    6.7134  -19.7307    0.0000 C   0  0  0  0  0  0  0  0  0  0  0  0
    6.1603  -19.1184    0.0000 C   0  0  0  0  0  0  0  0  0  0  0  0
    6.4174  -18.3337    0.0000 C   0  0  0  0  0  0  0  0  0  0  0  0
    7.2235  -18.1614    0.0000 C   0  0  0  0  0  0  0  0  0  0  0  0
    7.4806  -17.3767    0.0000 C   0  0  0  0  0  0  0  0  0  0  0  0
    8.2866  -17.2043    0.0000 O   0  0  0  0  0  0  0  0  0  0  0  0
    6.8967  -16.7928    0.0000 O   0  0  0  0  0  0  0  0  0  0  0  0
   14.1858  -17.4590    0.0000 C   0  0  0  0  0  0  0  0  0  0  0  0
   14.9402  -17.1255    0.0000 N   0  0  0  0  0  0  0  0  0  0  0  0
   15.4933  -17.7378    0.0000 C   0  0  0  0  0  0  0  0  0  0  0  0
   16.3183  -17.7378    0.0000 C   0  0  0  0  0  0  0  0  0  0  0  0
   16.7308  -18.4537    0.0000 C   0  0  0  0  0  0  0  0  0  0  0  0
   16.3183  -19.1695    0.0000 C   0  0  0  0  0  0  0  0  0  0  0  0
   15.4933  -19.1695    0.0000 C   0  0  0  0  0  0  0  0  0  0  0  0
   15.0808  -18.4537    0.0000 C   0  0  0  0  0  0  0  0  0  0  0  0
   14.2748  -18.2813    0.0000 N   0  0  0  0  0  0  0  0  0  0  0  0
   13.6584  -18.8344    0.0000 C   0  0  0  0  0  0  0  0  0  0  0  0
   12.7582  -14.9840    0.0000 C   0  0  0  0  0  0  0  0  0  0  0  0
  1  2  1  0
  2  3  1  0
  3  4  1  0
  4  5  2  0
  5  6  1  0
  6  7  2  0
  7  8  1  0
  8  9  2  0
  9 10  1  0
 10 11  2  0
  6 11  1  0
 11 12  1  0
  4 12  1  0
 12 13  1  0
 13 14  1  0
 14 15  2  0
 15 16  1  0
 16 17  2  0
 17 18  1  0
 18 19  2  0
 14 19  1  0
 17 20  1  0
 20 21  2  0
 21 22  1  0
 22 23  2  0
 23 24  1  0
 24 25  2  0
 20 25  1  0
 25 26  1  0
 26 27  2  0
 26 28  1  0
  9 29  1  0
 29 30  2  0
 30 31  1  0
 31 32  2  0
 32 33  1  0
 33 34  2  0
 34 35  1  0
 35 36  2  0
 31 36  1  0
 36 37  1  0
 29 37  1  0
 37 38  1  0
  7 39  1  0
M  END
>  <From>  (1) 
www.bindingDB.org

>  <BindingDB Reactant_set_id>  (1) 
51045852

>  <Ligand InChI>  (1) 
InChI=1S/C33H30N4O2/c1-4-9-30-35-31-21(2)18-24(32-34-27-12-7-8-13-28(27)36(32)3)19-29(31)37(30)20-22-14-16-23(17-15-22)25-10-5-6-11-26(25)33(38)39/h5-8,10-19H,4,9,20H2,1-3H3,(H,38,39)

>  <Ligand InChI Key>  (1) 
RMMXLENWKUUMAY-UHFFFAOYSA-N

>  <BindingDB MonomerID>  (1) 
50043280

>  <BindingDB Ligand Name>  (1) 
4'-((1,4'-dimethyl-2'-propyl(2,6'-bi-1H-benzimidazol)-1'-yl)methyl)-(1,1'-biphenyl)-2-carboxylic acid::4'-((4-methyl-6-(1-methyl-2-benzimidazolyl)-2-propyl-1-benzimidazolyl)methyl)-2-biphenylcarboxylic acid::4'-[(1,4'-dimethyl-2'propyl[2,6'-bi-1H-benzimidazol]-1'-yl)methyl]-[1,1'-biphenyl]-2-carboxylic acid::4'-[(1,7'-dimethyl-2'-propyl-1H,3'H-2,5'-bibenzimidazol-3'-yl)methyl][1,1'-biphenyl]-2-carboxylic acid::4'-[(1,7'-dimethyl-2'-propyl-1H,3'H-2,5'-bibenzimidazol-3'-yl)methyl]biphenyl-2-carboxylic acid::BIBR 277::CHEMBL1017::TELMISARTAN

>  <Target Name>  (1) 
Type-1 angiotensin II receptor

>  <Target Source Organism According to Curator or DataSource>  (1) 
Homo sapiens

>  <Ki (nM)>  (1) 


>  <IC50 (nM)>  (1) 
 0.490000

>  <Kd (nM)>  (1) 


>  <EC50 (nM)>  (1) 


>  <kon (M-1-s-1)>  (1) 


>  <koff (s-1)>  (1) 


>  <pH>  (1) 


>  <Temp C>  (1) 


>  <Curation/DataSource>  (1) 
ChEMBL

>  <Article DOI>  (1) 
10.1016/j.bmcl.2012.11.088

>  <BindingDB Entry DOI>  (1) 
10.7270/Q2542PW7

>  <PMID>  (1) 
23265881

>  <PubChem AID>  (1) 


>  <Patent Number>  (1) 


>  <Authors>  (1) 
Casimiro-Garcia, A; Heemstra, RJ; Bigge, CF; Chen, J; Ciske, FA; Davis, JA; Ellis, T; Esmaeil, N; Flynn, D; Han, S; Jalaie, M; Ohren, JF; Powell, NA

>  <Institution>  (1) 
Pfizer Inc

>  <Link to Ligand in BindingDB>  (1) 
http://www.bindingdb.org/bind/chemsearch/marvin/MolStructure.jsp?monomerid=50043280

>  <Link to Ligand-Target Pair in BindingDB>  (1) 
http://www.bindingdb.org/jsp/dbsearch/PrimarySearch_ki.jsp?energyterm=kJ/mole&tag=r21&monomerid=50043280&enzyme=Type-1+angiotensin+II+receptor&column=ki&startPg=0&Increment=50&submit=Search

>  <Ligand HET ID in PDB>  (1) 
TLS

>  <PDB ID(s) for Ligand-Target Complex>  (1) 
3VN2

>  <PubChem CID of Ligand>  (1) 
65999

>  <PubChem SID of Ligand>  (1) 
103974749

>  <ChEBI ID of Ligand>  (1) 
9434

>  <ChEMBL ID of Ligand>  (1) 
CHEMBL1017

>  <DrugBank ID of Ligand>  (1) 
DB00966

>  <IUPHAR_GRAC ID of Ligand>  (1) 
592

>  <KEGG ID of Ligand>  (1) 
C07710

>  <ZINC ID of Ligand>  (1) 
ZINC01530886

>  <Number of Protein Chains in Target (bigger than 1 implies a multichain complex)>  (1) 
1

>  <BindingDB Target Chain Sequence>  (1) 
MILNSSTEDGIKRIQDDCPKAGRHNYIFVMIPTLYSIIFVVGIFGNSLVVIVIYFYMKLKTVASVFLLNLALADLCFLLTLPLWAVYTAMEYRWPFGNYLCKIASASVSFNLYASVFLLTCLSIDRYLAIVHPMKSRLRRTMLVAKVTCIIIWLLAGLASLPAIIHRNVFFIENTNITVCAFHYESQNSTLPIGLGLTKNILGFLFPFLIILTSYTLIWKALKKAYEIQKNKPRNDDIFKIIMAIVLFFFFSWIPHQIFTFLDVLIQLGIIRDCRIADIVDTAMPITICIAYFNNCLNPLFYGFLGKKFKRYFLQLLKYIPPKAKSHSNLSTKMSTLSYRPSDNVSSSTKKPAPCFEVE

>  <PDB ID(s) of Target Chain>  (1) 
6DO1,6OS0,6OS1,6OS2

>  <UniProt (SwissProt) Recommended Name of Target Chain>  (1) 
Type-1 angiotensin II receptor

>  <UniProt (SwissProt) Entry Name of Target Chain>  (1) 
AGTR1_HUMAN

>  <UniProt (SwissProt) Primary ID of Target Chain>  (1) 
P30556

>  <UniProt (SwissProt) Secondary ID(s) of Target Chain>  (1) 
Q13725 Q8TBK4

>  <UniProt (SwissProt) Alternative ID(s) of Target Chain>  (1) 


>  <UniProt (TrEMBL) Submitted Name of Target Chain>  (1) 


>  <UniProt (TrEMBL) Entry Name of Target Chain>  (1) 


>  <UniProt (TrEMBL) Primary ID of Target Chain>  (1) 


>  <UniProt (TrEMBL) Secondary ID(s) of Target Chain>  (1) 


>  <UniProt (TrEMBL) Alternative ID(s) of Target Chain>  (1) 


$$$$
