
     RDKit          2D

 34 37  0  0  0  0  0  0  0  0999 V2000
   18.2795   -4.0612    0.0000 O   0  0  0  0  0  0  0  0  0  0  0  0
   17.8750   -3.3554    0.0000 S   0  0  0  0  0  0  0  0  0  0  0  0
   17.4661   -4.0586    0.0000 O   0  0  0  0  0  0  0  0  0  0  0  0
   17.1431   -4.8082    0.0000 C   0  0  0  0  0  0  0  0  0  0  0  0
   17.1419   -5.6277    0.0000 C   0  0  0  0  0  0  0  0  0  0  0  0
   17.8500   -6.0367    0.0000 C   0  0  0  0  0  0  0  0  0  0  0  0
   18.5597   -5.6272    0.0000 C   0  0  0  0  0  0  0  0  0  0  0  0
   18.5568   -4.8046    0.0000 C   0  0  0  0  0  0  0  0  0  0  0  0
   17.8482   -4.3993    0.0000 C   0  0  0  0  0  0  0  0  0  0  0  0
   19.2680   -6.0347    0.0000 N   0  0  0  0  0  0  0  0  0  0  0  0
   19.9751   -5.6250    0.0000 C   0  0  0  0  0  0  0  0  0  0  0  0
   20.6834   -6.0325    0.0000 C   0  0  0  0  0  0  0  0  0  0  0  0
   19.9738   -4.8078    0.0000 O   0  0  0  0  0  0  0  0  0  0  0  0
   20.6801   -6.8481    0.0000 C   0  0  0  0  0  0  0  0  0  0  0  0
   21.3876   -7.2556    0.0000 C   0  0  0  0  0  0  0  0  0  0  0  0
   22.0956   -6.8458    0.0000 C   0  0  0  0  0  0  0  0  0  0  0  0
   22.0917   -6.0244    0.0000 C   0  0  0  0  0  0  0  0  0  0  0  0
   21.3836   -5.6207    0.0000 C   0  0  0  0  0  0  0  0  0  0  0  0
   16.4353   -4.3998    0.0000 C   0  0  0  0  0  0  0  0  0  0  0  0
   16.4351   -3.5826    0.0000 N   0  0  0  0  0  0  0  0  0  0  0  0
   17.1019   -3.1033    0.0000 C   0  0  0  0  0  0  0  0  0  0  0  0
   16.8492   -2.3261    0.0000 N   0  0  0  0  0  0  0  0  0  0  0  0
   16.0319   -2.3263    0.0000 N   0  0  0  0  0  0  0  0  0  0  0  0
   15.7797   -3.1036    0.0000 C   0  0  0  0  0  0  0  0  0  0  0  0
   15.0022   -3.3552    0.0000 C   0  0  0  0  0  0  0  0  0  0  0  0
   14.8314   -4.1543    0.0000 C   0  0  0  0  0  0  0  0  0  0  0  0
   15.4380   -4.7019    0.0000 C   0  0  0  0  0  0  0  0  0  0  0  0
   21.3730   -4.8025    0.0000 C   0  0  0  0  0  0  0  0  0  0  0  0
   18.4871   -2.8124    0.0000 C   0  0  0  0  0  0  0  0  0  0  0  0
   22.0250   -4.3122    0.0000 N   0  0  0  0  0  0  0  0  0  0  0  0
   21.7620   -3.5374    0.0000 N   0  0  0  0  0  0  0  0  0  0  0  0
   20.9438   -3.5480    0.0000 N   0  0  0  0  0  0  0  0  0  0  0  0
   20.7012   -4.3295    0.0000 N   0  0  0  0  0  0  0  0  0  0  0  0
   15.2671   -5.5010    0.0000 C   0  0  0  0  0  0  0  0  0  0  0  0
  2  1  2  0
  3  2  2  0
  4  5  2  0
  5  6  1  0
  6  7  2  0
  7  8  1  0
  8  9  2  0
  9  4  1  0
  7 10  1  0
 10 11  1  0
 11 12  1  0
 11 13  2  0
 12 14  2  0
 14 15  1  0
 15 16  2  0
 16 17  1  0
 17 18  2  0
 18 12  1  0
  4 19  1  0
 19 20  1  0
 20 21  1  0
 21 22  2  0
 22 23  1  0
 23 24  2  0
 24 20  1  0
 24 25  1  0
 25 26  1  0
 26 27  1  0
 18 28  1  0
 21  2  1  0
  2 29  1  0
 28 30  2  0
 30 31  1  0
 31 32  2  0
 32 33  1  0
 33 28  1  0
 27 34  1  0
M  END
>  <From>  (1) 
www.bindingDB.org

>  <BindingDB Reactant_set_id>  (1) 
51183544

>  <Ligand InChI>  (1) 
InChI=1S/C22H24N8O3S/c1-3-4-9-19-24-27-22(34(2,32)33)30(19)14-15-10-12-16(13-11-15)23-21(31)18-8-6-5-7-17(18)20-25-28-29-26-20/h5-8,10-13H,3-4,9,14H2,1-2H3,(H,23,31)(H,25,26,28,29)

>  <Ligand InChI Key>  (1) 
OAEIIXQUSGIRNW-UHFFFAOYSA-N

>  <BindingDB MonomerID>  (1) 
50486751

>  <BindingDB Ligand Name>  (1) 
CHEMBL2237603

>  <Target Name>  (1) 
Type-1 angiotensin II receptor

>  <Target Source Organism According to Curator or DataSource>  (1) 
Oryctolagus cuniculus

>  <Ki (nM)>  (1) 


>  <IC50 (nM)>  (1) 
 400

>  <Kd (nM)>  (1) 


>  <EC50 (nM)>  (1) 


>  <kon (M-1-s-1)>  (1) 


>  <koff (s-1)>  (1) 


>  <pH>  (1) 


>  <Temp C>  (1) 


>  <Curation/DataSource>  (1) 
ChEMBL

>  <Article DOI>  (1) 
10.1007/s00044-011-9756-4

>  <BindingDB Entry DOI>  (1) 
10.7270/Q2833VXQ

>  <PMID>  (1) 


>  <PubChem AID>  (1) 


>  <Patent Number>  (1) 


>  <Authors>  (1) 
n/a

>  <Institution>  (1) 
n/a

>  <Link to Ligand in BindingDB>  (1) 
http://www.bindingdb.org/bind/chemsearch/marvin/MolStructure.jsp?monomerid=50486751

>  <Link to Ligand-Target Pair in BindingDB>  (1) 
http://www.bindingdb.org/jsp/dbsearch/PrimarySearch_ki.jsp?energyterm=kJ/mole&tag=r21&monomerid=50486751&enzyme=Type-1+angiotensin+II+receptor&column=ki&startPg=0&Increment=50&submit=Search

>  <Ligand HET ID in PDB>  (1) 


>  <PDB ID(s) for Ligand-Target Complex>  (1) 


>  <PubChem CID of Ligand>  (1) 
76326258

>  <PubChem SID of Ligand>  (1) 
433954016

>  <ChEBI ID of Ligand>  (1) 


>  <ChEMBL ID of Ligand>  (1) 


>  <DrugBank ID of Ligand>  (1) 


>  <IUPHAR_GRAC ID of Ligand>  (1) 


>  <KEGG ID of Ligand>  (1) 


>  <ZINC ID of Ligand>  (1) 


>  <Number of Protein Chains in Target (bigger than 1 implies a multichain complex)>  (1) 
1

>  <BindingDB Target Chain Sequence>  (1) 
MMLNSSTEDGIKRIQDDCPKAGRHNYIFVMIPTLYSIIFVVGIFGNSLAVIVIYFYMKLKTVASVFLLNLALADLCFLLTLPLWAVYTAMEYRWPFGNYLCKIASASVSFNLYASVFLLTCLSIDRYLAIVHPMKSRLRRTMLVAKVTCIIIWLLAGLASLPAIIHRNVFFIENTNITVCAFHYESQNSTLPIGLGLTKNILGFLFPFLIILTSYTLIWKALKKAYEIQKNKPRNDDIFKIIMAIVLFFFFSWVPHQIFTFLDVLIQLGVIHDCRIADIVDTAMPITICIAYFNNCLNPLFYGFLGKKFKKYFLQLLKYIPPKAKSHSNLSTKMSTLSYRPSDNVSSSSKKPVPCFEVE

>  <PDB ID(s) of Target Chain>  (1) 
6DO1,6OS0,6OS1,6OS2

>  <UniProt (SwissProt) Recommended Name of Target Chain>  (1) 
Type-1 angiotensin II receptor

>  <UniProt (SwissProt) Entry Name of Target Chain>  (1) 
AGTR1_RABIT

>  <UniProt (SwissProt) Primary ID of Target Chain>  (1) 
P34976

>  <UniProt (SwissProt) Secondary ID(s) of Target Chain>  (1) 


>  <UniProt (SwissProt) Alternative ID(s) of Target Chain>  (1) 


>  <UniProt (TrEMBL) Submitted Name of Target Chain>  (1) 


>  <UniProt (TrEMBL) Entry Name of Target Chain>  (1) 


>  <UniProt (TrEMBL) Primary ID of Target Chain>  (1) 


>  <UniProt (TrEMBL) Secondary ID(s) of Target Chain>  (1) 


>  <UniProt (TrEMBL) Alternative ID(s) of Target Chain>  (1) 


$$$$
