
     RDKit          2D

 40 44  0  0  0  0  0  0  0  0999 V2000
    4.2626  -13.9863    0.0000 N   0  0  0  0  0  0  0  0  0  0  0  0
    4.9745  -13.5747    0.0000 C   0  0  0  0  0  0  0  0  0  0  0  0
    5.6822  -13.9863    0.0000 C   0  0  0  0  0  0  0  0  0  0  0  0
    5.6822  -14.8055    0.0000 C   0  0  0  0  0  0  0  0  0  0  0  0
    4.9745  -15.2129    0.0000 N   0  0  0  0  0  0  0  0  0  0  0  0
    4.2626  -14.8055    0.0000 C   0  0  0  0  0  0  0  0  0  0  0  0
    3.5552  -15.2128    0.0000 C   0  0  0  0  0  0  0  0  0  0  0  0
    2.8477  -14.8055    0.0000 C   0  0  0  0  0  0  0  0  0  0  0  0
    2.1362  -15.2128    0.0000 C   0  0  0  0  0  0  0  0  0  0  0  0
    1.4287  -14.8055    0.0000 C   0  0  0  0  0  0  0  0  0  0  0  0
    4.9745  -16.0317    0.0000 C   0  0  0  0  0  0  0  0  0  0  0  0
    5.6819  -16.4431    0.0000 C   0  0  0  0  0  0  0  0  0  0  0  0
    5.6819  -17.2627    0.0000 C   0  0  0  0  0  0  0  0  0  0  0  0
    6.3885  -17.6671    0.0000 C   0  0  0  0  0  0  0  0  0  0  0  0
    7.0976  -17.2627    0.0000 C   0  0  0  0  0  0  0  0  0  0  0  0
    7.0976  -16.4431    0.0000 C   0  0  0  0  0  0  0  0  0  0  0  0
    6.3885  -16.0281    0.0000 C   0  0  0  0  0  0  0  0  0  0  0  0
    7.8050  -17.6700    0.0000 C   0  0  0  0  0  0  0  0  0  0  0  0
    7.8050  -18.4896    0.0000 C   0  0  0  0  0  0  0  0  0  0  0  0
    8.5116  -18.8982    0.0000 C   0  0  0  0  0  0  0  0  0  0  0  0
    9.2206  -18.4896    0.0000 C   0  0  0  0  0  0  0  0  0  0  0  0
    9.2206  -17.6700    0.0000 C   0  0  0  0  0  0  0  0  0  0  0  0
    8.5116  -17.2591    0.0000 C   0  0  0  0  0  0  0  0  0  0  0  0
    8.5116  -16.4404    0.0000 C   0  0  0  0  0  0  0  0  0  0  0  0
    7.8466  -15.9597    0.0000 N   0  0  0  0  0  0  0  0  0  0  0  0
    8.1005  -15.1821    0.0000 O   0  0  0  0  0  0  0  0  0  0  0  0
    8.9186  -15.1821    0.0000 C   0  0  0  0  0  0  0  0  0  0  0  0
    9.1725  -15.9597    0.0000 N   0  0  0  0  0  0  0  0  0  0  0  0
    9.3301  -14.4706    0.0000 O   0  0  0  0  0  0  0  0  0  0  0  0
    6.3896  -15.2128    0.0000 O   0  0  0  0  0  0  0  0  0  0  0  0
    6.3896  -13.5749    0.0000 C   0  0  0  0  0  0  0  0  0  0  0  0
    7.0971  -13.9863    0.0000 C   0  0  0  0  0  0  0  0  0  0  0  0
    7.8087  -13.5749    0.0000 N   0  0  0  0  0  0  0  0  0  0  0  0
    7.8086  -12.7603    0.0000 C   0  0  0  0  0  0  0  0  0  0  0  0
    8.5161  -12.3489    0.0000 C   0  0  0  0  0  0  0  0  0  0  0  0
    9.2235  -12.7604    0.0000 C   0  0  0  0  0  0  0  0  0  0  0  0
    9.2235  -13.5749    0.0000 C   0  0  0  0  0  0  0  0  0  0  0  0
    8.5161  -13.9863    0.0000 C   0  0  0  0  0  0  0  0  0  0  0  0
    7.0971  -14.8051    0.0000 S   0  0  0  0  0  0  0  0  0  0  0  0
    4.9745  -12.7601    0.0000 C   0  0  0  0  0  0  0  0  0  0  0  0
  1  2  1  0
  3  2  2  0
  4  3  1  0
  5  4  1  0
  6  5  1  0
  1  6  2  0
  6  7  1  0
  7  8  1  0
  8  9  1  0
  9 10  1  0
  5 11  1  0
 11 12  1  0
 12 13  2  0
 13 14  1  0
 14 15  2  0
 15 16  1  0
 16 17  2  0
 12 17  1  0
 15 18  1  0
 18 19  2  0
 19 20  1  0
 20 21  2  0
 21 22  1  0
 22 23  2  0
 18 23  1  0
 23 24  1  0
 25 24  2  0
 25 26  1  0
 26 27  1  0
 27 28  1  0
 28 24  1  0
 27 29  2  0
  4 30  2  0
  3 31  1  0
 31 32  1  0
 32 33  1  0
 34 33  1  0
 35 34  1  0
 36 35  1  0
 37 36  1  0
 38 37  1  0
 33 38  1  0
 32 39  2  0
  2 40  1  0
M  END
>  <From>  (1) 
www.bindingDB.org

>  <BindingDB Reactant_set_id>  (1) 
51139695

>  <Ligand InChI>  (1) 
InChI=1S/C31H35N5O3S/c1-3-4-12-27-32-21(2)26(19-28(40)35-17-8-5-9-18-35)30(37)36(27)20-22-13-15-23(16-14-22)24-10-6-7-11-25(24)29-33-31(38)39-34-29/h6-7,10-11,13-16H,3-5,8-9,12,17-20H2,1-2H3,(H,33,34,38)

>  <Ligand InChI Key>  (1) 
ZHLHYLQRZPRNHF-UHFFFAOYSA-N

>  <BindingDB MonomerID>  (1) 
50467137

>  <BindingDB Ligand Name>  (1) 
CHEMBL4294618

>  <Target Name>  (1) 
Type-1 angiotensin II receptor

>  <Target Source Organism According to Curator or DataSource>  (1) 
Homo sapiens

>  <Ki (nM)>  (1) 


>  <IC50 (nM)>  (1) 
 38

>  <Kd (nM)>  (1) 


>  <EC50 (nM)>  (1) 


>  <kon (M-1-s-1)>  (1) 


>  <koff (s-1)>  (1) 


>  <pH>  (1) 


>  <Temp C>  (1) 


>  <Curation/DataSource>  (1) 
ChEMBL

>  <Article DOI>  (1) 
10.1016/j.bmcl.2018.08.036

>  <BindingDB Entry DOI>  (1) 
10.7270/Q2X63QMZ

>  <PMID>  (1) 
30177375

>  <PubChem AID>  (1) 


>  <Patent Number>  (1) 


>  <Authors>  (1) 
Choung, W; Jung, HJ; Nam, EH; Yang, D; Yoo, B; Choi, H; Lee, BR; Park, M; Jang, SM; Lim, JS; Kim, KH; Chin, J; Jung, K; Lee, G; Kim, SH

>  <Institution>  (1) 
Boryung Pharmaceuticals Co. Ltd.

>  <Link to Ligand in BindingDB>  (1) 
http://www.bindingdb.org/bind/chemsearch/marvin/MolStructure.jsp?monomerid=50467137

>  <Link to Ligand-Target Pair in BindingDB>  (1) 
http://www.bindingdb.org/jsp/dbsearch/PrimarySearch_ki.jsp?energyterm=kJ/mole&tag=r21&monomerid=50467137&enzyme=Type-1+angiotensin+II+receptor&column=ki&startPg=0&Increment=50&submit=Search

>  <Ligand HET ID in PDB>  (1) 


>  <PDB ID(s) for Ligand-Target Complex>  (1) 


>  <PubChem CID of Ligand>  (1) 
142534004

>  <PubChem SID of Ligand>  (1) 
433934402

>  <ChEBI ID of Ligand>  (1) 


>  <ChEMBL ID of Ligand>  (1) 


>  <DrugBank ID of Ligand>  (1) 


>  <IUPHAR_GRAC ID of Ligand>  (1) 


>  <KEGG ID of Ligand>  (1) 


>  <ZINC ID of Ligand>  (1) 


>  <Number of Protein Chains in Target (bigger than 1 implies a multichain complex)>  (1) 
1

>  <BindingDB Target Chain Sequence>  (1) 
MILNSSTEDGIKRIQDDCPKAGRHNYIFVMIPTLYSIIFVVGIFGNSLVVIVIYFYMKLKTVASVFLLNLALADLCFLLTLPLWAVYTAMEYRWPFGNYLCKIASASVSFNLYASVFLLTCLSIDRYLAIVHPMKSRLRRTMLVAKVTCIIIWLLAGLASLPAIIHRNVFFIENTNITVCAFHYESQNSTLPIGLGLTKNILGFLFPFLIILTSYTLIWKALKKAYEIQKNKPRNDDIFKIIMAIVLFFFFSWIPHQIFTFLDVLIQLGIIRDCRIADIVDTAMPITICIAYFNNCLNPLFYGFLGKKFKRYFLQLLKYIPPKAKSHSNLSTKMSTLSYRPSDNVSSSTKKPAPCFEVE

>  <PDB ID(s) of Target Chain>  (1) 
6DO1,6OS0,6OS1,6OS2

>  <UniProt (SwissProt) Recommended Name of Target Chain>  (1) 
Type-1 angiotensin II receptor

>  <UniProt (SwissProt) Entry Name of Target Chain>  (1) 
AGTR1_HUMAN

>  <UniProt (SwissProt) Primary ID of Target Chain>  (1) 
P30556

>  <UniProt (SwissProt) Secondary ID(s) of Target Chain>  (1) 
Q13725 Q8TBK4

>  <UniProt (SwissProt) Alternative ID(s) of Target Chain>  (1) 


>  <UniProt (TrEMBL) Submitted Name of Target Chain>  (1) 


>  <UniProt (TrEMBL) Entry Name of Target Chain>  (1) 


>  <UniProt (TrEMBL) Primary ID of Target Chain>  (1) 


>  <UniProt (TrEMBL) Secondary ID(s) of Target Chain>  (1) 


>  <UniProt (TrEMBL) Alternative ID(s) of Target Chain>  (1) 


$$$$
