
     RDKit          2D

 47 51  0  0  0  0  0  0  0  0999 V2000
    4.3592   -4.4468    0.0000 N   0  0  0  0  0  0  0  0  0  0  0  0
    7.9383   -3.8419    0.0000 S   0  0  0  0  0  0  0  0  0  0  0  0
    4.8222   -3.7710    0.0000 C   0  0  0  0  0  0  0  0  0  0  0  0
    4.3091   -3.1161    0.0000 N   0  0  0  0  0  0  0  0  0  0  0  0
    3.5333   -3.4081    0.0000 N   0  0  0  0  0  0  0  0  0  0  0  0
    7.5253   -3.1161    0.0000 N   0  0  0  0  0  0  0  0  0  0  0  0
    3.5666   -4.2299    0.0000 C   0  0  0  0  0  0  0  0  0  0  0  0
    7.9508   -2.4070    0.0000 C   0  0  0  0  0  0  0  0  0  0  0  0
    8.3388   -4.5677    0.0000 C   0  0  0  0  0  0  0  0  0  0  0  0
    8.7475   -2.1900    0.0000 C   0  0  0  0  0  0  0  0  0  0  0  0
    4.5344   -2.3194    0.0000 C   0  0  0  0  0  0  0  0  0  0  0  0
    7.9258   -5.2728    0.0000 C   0  0  0  0  0  0  0  0  0  0  0  0
    4.6470   -5.2310    0.0000 C   0  0  0  0  0  0  0  0  0  0  0  0
    7.2125   -4.2424    0.0000 O   0  0  0  0  0  0  0  0  0  0  0  0
    8.6516   -3.4331    0.0000 O   0  0  0  0  0  0  0  0  0  0  0  0
    4.0213   -1.6811    0.0000 C   0  0  0  0  0  0  0  0  0  0  0  0
    5.6482   -3.7335    0.0000 O   0  0  0  0  0  0  0  0  0  0  0  0
    4.0964    0.4964    0.0000 C   0  0  0  0  0  0  0  0  0  0  0  0
    3.7961   -0.2753    0.0000 N   0  0  0  0  0  0  0  0  0  0  0  0
    7.1082   -5.2602    0.0000 C   0  0  0  0  0  0  0  0  0  0  0  0
    8.9520   -1.3933    0.0000 C   0  0  0  0  0  0  0  0  0  0  0  0
    7.5462   -1.6811    0.0000 O   0  0  0  0  0  0  0  0  0  0  0  0
    4.3175   -0.9178    0.0000 C   0  0  0  0  0  0  0  0  0  0  0  0
    3.5833    1.1471    0.0000 O   0  0  0  0  0  0  0  0  0  0  0  0
    6.6994   -4.5427    0.0000 C   0  0  0  0  0  0  0  0  0  0  0  0
    6.6869   -5.9610    0.0000 C   0  0  0  0  0  0  0  0  0  0  0  0
    5.4688   -5.2352    0.0000 C   0  0  0  0  0  0  0  0  0  0  0  0
    8.3638   -0.8051    0.0000 Cl  0  0  0  0  0  0  0  0  0  0  0  0
    2.9201   -4.7429    0.0000 C   0  0  0  0  0  0  0  0  0  0  0  0
    5.8692   -5.9568    0.0000 C   0  0  0  0  0  0  0  0  0  0  0  0
    5.8818   -4.5344    0.0000 C   0  0  0  0  0  0  0  0  0  0  0  0
    9.3274   -2.7699    0.0000 C   0  0  0  0  0  0  0  0  0  0  0  0
    5.3478   -2.2025    0.0000 C   0  0  0  0  0  0  0  0  0  0  0  0
    9.1647   -4.5720    0.0000 C   0  0  0  0  0  0  0  0  0  0  0  0
    8.3263   -5.9861    0.0000 C   0  0  0  0  0  0  0  0  0  0  0  0
    5.6482   -1.4308    0.0000 C   0  0  0  0  0  0  0  0  0  0  0  0
    4.9098    0.6257    0.0000 C   0  0  0  0  0  0  0  0  0  0  0  0
    5.1351   -0.7926    0.0000 C   0  0  0  0  0  0  0  0  0  0  0  0
    9.7404   -1.1680    0.0000 C   0  0  0  0  0  0  0  0  0  0  0  0
    2.1525   -4.4343    0.0000 C   0  0  0  0  0  0  0  0  0  0  0  0
    1.5017   -4.9474    0.0000 C   0  0  0  0  0  0  0  0  0  0  0  0
   10.1241   -2.5529    0.0000 C   0  0  0  0  0  0  0  0  0  0  0  0
    5.4354   -0.0167    0.0000 C   0  0  0  0  0  0  0  0  0  0  0  0
    9.5735   -5.2936    0.0000 C   0  0  0  0  0  0  0  0  0  0  0  0
    9.1522   -5.9986    0.0000 C   0  0  0  0  0  0  0  0  0  0  0  0
    0.7383   -4.6345    0.0000 C   0  0  0  0  0  0  0  0  0  0  0  0
   10.3286   -1.7520    0.0000 C   0  0  0  0  0  0  0  0  0  0  0  0
  2  9  1  0
  3  1  1  0
  4  3  1  0
  5  7  2  0
  6  2  1  0
  7  1  1  0
  8  6  1  0
  9 12  1  0
 10  8  1  0
 11  4  1  0
 12 20  1  0
 13  1  1  0
 14  2  2  0
 15  2  2  0
 16 11  2  0
 17  3  2  0
 18 19  1  0
 19 23  1  0
 20 25  2  0
 21 10  2  0
 22  8  2  0
 23 16  1  0
 24 18  2  0
 25 31  1  0
 26 30  2  0
 27 13  1  0
 28 21  1  0
 29  7  1  0
 30 27  1  0
 31 27  2  0
 32 10  1  0
 33 11  1  0
 34  9  2  0
 35 12  2  0
 36 33  2  0
 37 18  1  0
 38 36  1  0
 39 21  1  0
 40 29  1  0
 41 40  1  0
 42 32  2  0
 43 37  1  0
 44 45  2  0
 45 35  1  0
 46 41  1  0
 47 42  1  0
  4  5  1  0
 26 20  1  0
 38 23  2  0
 44 34  1  0
 39 47  2  0
M  END
>  <From>  (1) 
www.bindingDB.org

>  <BindingDB Reactant_set_id>  (1) 
51075698

>  <Ligand InChI>  (1) 
InChI=1S/C35H34ClN5O5S/c1-3-5-17-32-38-41(27-12-10-11-26(22-27)37-33(42)4-2)35(44)40(32)23-24-18-20-25(21-19-24)28-13-7-9-16-31(28)47(45,46)39-34(43)29-14-6-8-15-30(29)36/h6-16,18-22H,3-5,17,23H2,1-2H3,(H,37,42)(H,39,43)

>  <Ligand InChI Key>  (1) 
FVZXJVDKGVPDHF-UHFFFAOYSA-N

>  <BindingDB MonomerID>  (1) 
50035464

>  <BindingDB Ligand Name>  (1) 
CHEMBL344467::N-(3-{3-Butyl-4-[2'-(2-chloro-benzoylsulfamoyl)-biphenyl-4-ylmethyl]-5-oxo-4,5-dihydro-[1,2,4]triazol-1-yl}-phenyl)-propionamide

>  <Target Name>  (1) 
Type-1 angiotensin II receptor

>  <Target Source Organism According to Curator or DataSource>  (1) 
Oryctolagus cuniculus

>  <Ki (nM)>  (1) 


>  <IC50 (nM)>  (1) 
 0.850000

>  <Kd (nM)>  (1) 


>  <EC50 (nM)>  (1) 


>  <kon (M-1-s-1)>  (1) 


>  <koff (s-1)>  (1) 


>  <pH>  (1) 


>  <Temp C>  (1) 


>  <Curation/DataSource>  (1) 
ChEMBL

>  <Article DOI>  (1) 
10.1007/s00044-013-0831-x

>  <BindingDB Entry DOI>  (1) 
10.7270/Q2C82BRJ

>  <PMID>  (1) 


>  <PubChem AID>  (1) 


>  <Patent Number>  (1) 


>  <Authors>  (1) 
n/a

>  <Institution>  (1) 
n/a

>  <Link to Ligand in BindingDB>  (1) 
http://www.bindingdb.org/bind/chemsearch/marvin/MolStructure.jsp?monomerid=50035464

>  <Link to Ligand-Target Pair in BindingDB>  (1) 
http://www.bindingdb.org/jsp/dbsearch/PrimarySearch_ki.jsp?energyterm=kJ/mole&tag=r21&monomerid=50035464&enzyme=Type-1+angiotensin+II+receptor&column=ki&startPg=0&Increment=50&submit=Search

>  <Ligand HET ID in PDB>  (1) 


>  <PDB ID(s) for Ligand-Target Complex>  (1) 


>  <PubChem CID of Ligand>  (1) 
10394712

>  <PubChem SID of Ligand>  (1) 
103943483

>  <ChEBI ID of Ligand>  (1) 


>  <ChEMBL ID of Ligand>  (1) 
CHEMBL344467

>  <DrugBank ID of Ligand>  (1) 


>  <IUPHAR_GRAC ID of Ligand>  (1) 


>  <KEGG ID of Ligand>  (1) 


>  <ZINC ID of Ligand>  (1) 
ZINC27519958

>  <Number of Protein Chains in Target (bigger than 1 implies a multichain complex)>  (1) 
1

>  <BindingDB Target Chain Sequence>  (1) 
MMLNSSTEDGIKRIQDDCPKAGRHNYIFVMIPTLYSIIFVVGIFGNSLAVIVIYFYMKLKTVASVFLLNLALADLCFLLTLPLWAVYTAMEYRWPFGNYLCKIASASVSFNLYASVFLLTCLSIDRYLAIVHPMKSRLRRTMLVAKVTCIIIWLLAGLASLPAIIHRNVFFIENTNITVCAFHYESQNSTLPIGLGLTKNILGFLFPFLIILTSYTLIWKALKKAYEIQKNKPRNDDIFKIIMAIVLFFFFSWVPHQIFTFLDVLIQLGVIHDCRIADIVDTAMPITICIAYFNNCLNPLFYGFLGKKFKKYFLQLLKYIPPKAKSHSNLSTKMSTLSYRPSDNVSSSSKKPVPCFEVE

>  <PDB ID(s) of Target Chain>  (1) 
6DO1,6OS0,6OS1,6OS2

>  <UniProt (SwissProt) Recommended Name of Target Chain>  (1) 
Type-1 angiotensin II receptor

>  <UniProt (SwissProt) Entry Name of Target Chain>  (1) 
AGTR1_RABIT

>  <UniProt (SwissProt) Primary ID of Target Chain>  (1) 
P34976

>  <UniProt (SwissProt) Secondary ID(s) of Target Chain>  (1) 


>  <UniProt (SwissProt) Alternative ID(s) of Target Chain>  (1) 


>  <UniProt (TrEMBL) Submitted Name of Target Chain>  (1) 


>  <UniProt (TrEMBL) Entry Name of Target Chain>  (1) 


>  <UniProt (TrEMBL) Primary ID of Target Chain>  (1) 


>  <UniProt (TrEMBL) Secondary ID(s) of Target Chain>  (1) 


>  <UniProt (TrEMBL) Alternative ID(s) of Target Chain>  (1) 


$$$$
