
     RDKit          2D

 44 48  0  0  0  0  0  0  0  0999 V2000
   28.2902   -7.9791    0.0000 C   0  0  0  0  0  0  0  0  0  0  0  0
   28.2891   -8.8065    0.0000 C   0  0  0  0  0  0  0  0  0  0  0  0
   29.0039   -9.2194    0.0000 C   0  0  0  0  0  0  0  0  0  0  0  0
   29.0021   -7.5664    0.0000 C   0  0  0  0  0  0  0  0  0  0  0  0
   29.7175   -7.9755    0.0000 C   0  0  0  0  0  0  0  0  0  0  0  0
   29.7223   -8.8019    0.0000 C   0  0  0  0  0  0  0  0  0  0  0  0
   30.5098   -9.0528    0.0000 N   0  0  0  0  0  0  0  0  0  0  0  0
   30.9917   -8.3813    0.0000 C   0  0  0  0  0  0  0  0  0  0  0  0
   30.5020   -7.7156    0.0000 N   0  0  0  0  0  0  0  0  0  0  0  0
   31.8167   -8.3764    0.0000 C   0  0  0  0  0  0  0  0  0  0  0  0
   32.2250   -7.6595    0.0000 C   0  0  0  0  0  0  0  0  0  0  0  0
   33.0500   -7.6547    0.0000 C   0  0  0  0  0  0  0  0  0  0  0  0
   30.7693   -9.8359    0.0000 C   0  0  0  0  0  0  0  0  0  0  0  0
   31.5917   -9.8333    0.0000 C   0  0  0  0  0  0  0  0  0  0  0  0
   32.0032  -10.5466    0.0000 C   0  0  0  0  0  0  0  0  0  0  0  0
   32.8248  -10.5444    0.0000 C   0  0  0  0  0  0  0  0  0  0  0  0
   33.2346   -9.8304    0.0000 C   0  0  0  0  0  0  0  0  0  0  0  0
   32.8168   -9.1171    0.0000 C   0  0  0  0  0  0  0  0  0  0  0  0
   31.9966   -9.1228    0.0000 C   0  0  0  0  0  0  0  0  0  0  0  0
   34.0564   -9.8266    0.0000 C   0  0  0  0  0  0  0  0  0  0  0  0
   34.4714  -10.5408    0.0000 C   0  0  0  0  0  0  0  0  0  0  0  0
   35.2957  -10.5375    0.0000 C   0  0  0  0  0  0  0  0  0  0  0  0
   35.7058   -9.8207    0.0000 C   0  0  0  0  0  0  0  0  0  0  0  0
   35.2857   -9.1057    0.0000 C   0  0  0  0  0  0  0  0  0  0  0  0
   34.4629   -9.1125    0.0000 C   0  0  0  0  0  0  0  0  0  0  0  0
   34.0432   -8.4002    0.0000 C   0  0  0  0  0  0  0  0  0  0  0  0
   34.4505   -7.6828    0.0000 O   0  0  0  0  0  0  0  0  0  0  0  0
   33.2182   -8.4062    0.0000 O   0  0  0  0  0  0  0  0  0  0  0  0
   28.9996   -6.7414    0.0000 C   0  0  0  0  0  0  0  0  0  0  0  0
   27.5743   -9.2184    0.0000 C   0  0  0  0  0  0  0  0  0  0  0  0
   26.8601   -8.8054    0.0000 N   0  0  0  0  0  0  0  0  0  0  0  0
   27.5736  -10.0434    0.0000 O   0  0  0  0  0  0  0  0  0  0  0  0
   26.1453   -9.2173    0.0000 C   0  0  0  0  0  0  0  0  0  0  0  0
   25.4312   -8.8042    0.0000 C   0  0  0  0  0  0  0  0  0  0  0  0
   24.7164   -9.2162    0.0000 C   0  0  0  0  0  0  0  0  0  0  0  0
   24.0058   -8.8022    0.0000 C   0  0  0  0  0  0  0  0  0  0  0  0
   23.2914   -9.2135    0.0000 C   0  0  0  0  0  0  0  0  0  0  0  0
   23.2903  -10.0394    0.0000 C   0  0  0  0  0  0  0  0  0  0  0  0
   24.0095  -10.4523    0.0000 C   0  0  0  0  0  0  0  0  0  0  0  0
   24.7209  -10.0386    0.0000 C   0  0  0  0  0  0  0  0  0  0  0  0
   25.4371  -10.4481    0.0000 O   0  0  0  0  0  0  0  0  0  0  0  0
   25.4406  -11.2731    0.0000 C   0  0  0  0  0  0  0  0  0  0  0  0
   22.5775   -8.8001    0.0000 O   0  0  0  0  0  0  0  0  0  0  0  0
   22.5786   -7.9751    0.0000 C   0  0  0  0  0  0  0  0  0  0  0  0
  8 10  1  0
 21 22  2  0
  5  6  1  0
 22 23  1  0
 10 11  1  0
 23 24  2  0
 24 25  1  0
 25 20  2  0
 17 20  1  0
 11 12  1  0
  2  3  1  0
  7 13  1  0
 26 27  1  0
 26 28  2  0
 25 26  1  0
  3  6  2  0
  4 29  1  0
 13 14  1  0
  2 30  1  0
  1  2  2  0
 30 31  1  0
 14 15  2  0
 30 32  2  0
  5  4  2  0
 31 33  1  0
 15 16  1  0
 33 34  1  0
  6  7  1  0
 34 35  1  0
 16 17  2  0
 35 36  2  0
  7  8  1  0
 36 37  1  0
 17 18  1  0
 37 38  2  0
  8  9  2  0
 38 39  1  0
 18 19  2  0
 39 40  2  0
 40 35  1  0
 19 14  1  0
 40 41  1  0
  9  5  1  0
 41 42  1  0
  4  1  1  0
 37 43  1  0
 20 21  1  0
 43 44  1  0
M  END
>  <From>  (1) 
www.bindingDB.org

>  <BindingDB Reactant_set_id>  (1) 
50716819

>  <Ligand InChI>  (1) 
InChI=1S/C36H37N3O5/c1-5-8-33-38-34-23(2)19-27(35(40)37-18-17-26-20-28(43-3)15-16-32(26)44-4)21-31(34)39(33)22-24-11-13-25(14-12-24)29-9-6-7-10-30(29)36(41)42/h6-7,9-16,19-21H,5,8,17-18,22H2,1-4H3,(H,37,40)(H,41,42)

>  <Ligand InChI Key>  (1) 
VOOYDDCVNCKBLQ-UHFFFAOYSA-N

>  <BindingDB MonomerID>  (1) 
50363833

>  <BindingDB Ligand Name>  (1) 
CHEMBL1945010

>  <Target Name>  (1) 
Type-1 angiotensin II receptor

>  <Target Source Organism According to Curator or DataSource>  (1) 
Homo sapiens

>  <Ki (nM)>  (1) 


>  <IC50 (nM)>  (1) 
 1.3

>  <Kd (nM)>  (1) 


>  <EC50 (nM)>  (1) 


>  <kon (M-1-s-1)>  (1) 


>  <koff (s-1)>  (1) 


>  <pH>  (1) 


>  <Temp C>  (1) 


>  <Curation/DataSource>  (1) 
ChEMBL

>  <Article DOI>  (1) 
10.1016/j.ejmech.2012.01.009

>  <BindingDB Entry DOI>  (1) 
10.7270/Q29K4BPW

>  <PMID>  (1) 
22309912

>  <PubChem AID>  (1) 


>  <Patent Number>  (1) 


>  <Authors>  (1) 
Wang, JL; Zhang, J; Zhou, ZM; Li, ZH; Xue, WZ; Xu, D; Hao, LP; Han, XF; Fei, F; Liu, T; Liang, AH

>  <Institution>  (1) 
Beijing Institute of Technology

>  <Link to Ligand in BindingDB>  (1) 
http://www.bindingdb.org/bind/chemsearch/marvin/MolStructure.jsp?monomerid=50363833

>  <Link to Ligand-Target Pair in BindingDB>  (1) 
http://www.bindingdb.org/jsp/dbsearch/PrimarySearch_ki.jsp?energyterm=kJ/mole&tag=r21&monomerid=50363833&enzyme=Type-1+angiotensin+II+receptor&column=ki&startPg=0&Increment=50&submit=Search

>  <Ligand HET ID in PDB>  (1) 


>  <PDB ID(s) for Ligand-Target Complex>  (1) 


>  <PubChem CID of Ligand>  (1) 
57380647

>  <PubChem SID of Ligand>  (1) 
136967895

>  <ChEBI ID of Ligand>  (1) 


>  <ChEMBL ID of Ligand>  (1) 
CHEMBL1945010

>  <DrugBank ID of Ligand>  (1) 


>  <IUPHAR_GRAC ID of Ligand>  (1) 


>  <KEGG ID of Ligand>  (1) 


>  <ZINC ID of Ligand>  (1) 
ZINC72316989

>  <Number of Protein Chains in Target (bigger than 1 implies a multichain complex)>  (1) 
1

>  <BindingDB Target Chain Sequence>  (1) 
MILNSSTEDGIKRIQDDCPKAGRHNYIFVMIPTLYSIIFVVGIFGNSLVVIVIYFYMKLKTVASVFLLNLALADLCFLLTLPLWAVYTAMEYRWPFGNYLCKIASASVSFNLYASVFLLTCLSIDRYLAIVHPMKSRLRRTMLVAKVTCIIIWLLAGLASLPAIIHRNVFFIENTNITVCAFHYESQNSTLPIGLGLTKNILGFLFPFLIILTSYTLIWKALKKAYEIQKNKPRNDDIFKIIMAIVLFFFFSWIPHQIFTFLDVLIQLGIIRDCRIADIVDTAMPITICIAYFNNCLNPLFYGFLGKKFKRYFLQLLKYIPPKAKSHSNLSTKMSTLSYRPSDNVSSSTKKPAPCFEVE

>  <PDB ID(s) of Target Chain>  (1) 
6DO1,6OS0,6OS1,6OS2

>  <UniProt (SwissProt) Recommended Name of Target Chain>  (1) 
Type-1 angiotensin II receptor

>  <UniProt (SwissProt) Entry Name of Target Chain>  (1) 
AGTR1_HUMAN

>  <UniProt (SwissProt) Primary ID of Target Chain>  (1) 
P30556

>  <UniProt (SwissProt) Secondary ID(s) of Target Chain>  (1) 
Q13725 Q8TBK4

>  <UniProt (SwissProt) Alternative ID(s) of Target Chain>  (1) 


>  <UniProt (TrEMBL) Submitted Name of Target Chain>  (1) 


>  <UniProt (TrEMBL) Entry Name of Target Chain>  (1) 


>  <UniProt (TrEMBL) Primary ID of Target Chain>  (1) 


>  <UniProt (TrEMBL) Secondary ID(s) of Target Chain>  (1) 


>  <UniProt (TrEMBL) Alternative ID(s) of Target Chain>  (1) 


$$$$
