
     RDKit          2D

 31 34  0  0  0  0  0  0  0  0999 V2000
    1.8917   -1.8792    0.0000 C   0  0  0  0  0  0  0  0  0  0  0  0
    1.2167   -2.3667    0.0000 C   0  0  0  0  0  0  0  0  0  0  0  0
    1.6292   -1.1000    0.0000 N   0  0  0  0  0  0  0  0  0  0  0  0
    4.7792   -3.6042    0.0000 C   0  0  0  0  0  0  0  0  0  0  0  0
    4.3667   -2.3417    0.0000 N   0  0  0  0  0  0  0  0  0  0  0  0
    0.8042   -1.1000    0.0000 N   0  0  0  0  0  0  0  0  0  0  0  0
    4.1125   -3.1250    0.0000 N   0  0  0  0  0  0  0  0  0  0  0  0
    5.1917   -2.3375    0.0000 N   0  0  0  0  0  0  0  0  0  0  0  0
    5.4417   -3.1167    0.0000 N   0  0  0  0  0  0  0  0  0  0  0  0
    2.6750   -2.1375    0.0000 C   0  0  0  0  0  0  0  0  0  0  0  0
    4.7875   -4.4292    0.0000 C   0  0  0  0  0  0  0  0  0  0  0  0
    0.5542   -1.8875    0.0000 C   0  0  0  0  0  0  0  0  0  0  0  0
    4.0750   -4.8417    0.0000 C   0  0  0  0  0  0  0  0  0  0  0  0
    1.2167   -3.1917    0.0000 C   0  0  0  0  0  0  0  0  0  0  0  0
    3.3625   -4.4292    0.0000 C   0  0  0  0  0  0  0  0  0  0  0  0
    2.8292   -2.5917    0.0000 O   0  0  0  0  0  0  0  0  0  0  0  0
    2.6542   -4.8417    0.0000 C   0  0  0  0  0  0  0  0  0  0  0  0
    3.3625   -3.6042    0.0000 C   0  0  0  0  0  0  0  0  0  0  0  0
    1.9292   -3.6042    0.0000 C   0  0  0  0  0  0  0  0  0  0  0  0
    3.2875   -1.5875    0.0000 O   0  0  0  0  0  0  0  0  0  0  0  0
    1.9375   -4.4292    0.0000 C   0  0  0  0  0  0  0  0  0  0  0  0
    2.6500   -3.1917    0.0000 C   0  0  0  0  0  0  0  0  0  0  0  0
    5.5042   -4.8417    0.0000 C   0  0  0  0  0  0  0  0  0  0  0  0
    4.0750   -5.6667    0.0000 C   0  0  0  0  0  0  0  0  0  0  0  0
   -0.2333   -2.1417    0.0000 C   0  0  0  0  0  0  0  0  0  0  0  0
    4.0750   -1.8417    0.0000 C   0  0  0  0  0  0  0  0  0  0  0  0
   -0.8458   -1.5875    0.0000 C   0  0  0  0  0  0  0  0  0  0  0  0
    5.5042   -5.6667    0.0000 C   0  0  0  0  0  0  0  0  0  0  0  0
    4.7875   -6.0792    0.0000 C   0  0  0  0  0  0  0  0  0  0  0  0
    4.6875   -1.2917    0.0000 C   0  0  0  0  0  0  0  0  0  0  0  0
   -1.6250   -1.8417    0.0000 C   0  0  0  0  0  0  0  0  0  0  0  0
  2  1  1  0
  3  1  2  0
  4 11  1  0
  5  7  1  0
  6  3  1  0
  7  4  1  0
  8  9  1  0
  9  4  2  0
 10  1  1  0
 11 13  1  0
 12  2  2  0
 13 15  1  0
 14  2  1  0
 15 18  2  0
 16 10  2  0
 17 21  2  0
 18 22  1  0
 19 14  1  0
 20 10  1  0
 21 19  1  0
 22 19  2  0
 23 11  2  0
 24 13  2  0
 25 12  1  0
 26 20  1  0
 27 25  1  0
 28 29  2  0
 29 24  1  0
 30 26  1  0
 31 27  1  0
  6 12  1  0
 17 15  1  0
 28 23  1  0
  8  5  2  0
M  END
>  <From>  (1) 
www.bindingDB.org

>  <BindingDB Reactant_set_id>  (1) 
50061757

>  <Ligand InChI>  (1) 
InChI=1S/C23H24N6O2/c1-3-7-20-19(21(25-24-20)23(30)31-4-2)14-15-10-12-16(13-11-15)17-8-5-6-9-18(17)22-26-28-29-27-22/h5-6,8-13H,3-4,7,14H2,1-2H3,(H,24,25)(H,26,27,28,29)

>  <Ligand InChI Key>  (1) 
LJOPGHFJTDAFMK-UHFFFAOYSA-N

>  <BindingDB MonomerID>  (1) 
50042533

>  <BindingDB Ligand Name>  (1) 
5-Propyl-4-[2'-(1H-tetrazol-5-yl)-biphenyl-4-ylmethyl]-2H-pyrazole-3-carboxylic acid ethyl ester::CHEMBL120605

>  <Target Name>  (1) 
Type-1 angiotensin II receptor

>  <Target Source Organism According to Curator or DataSource>  (1) 
Oryctolagus cuniculus

>  <Ki (nM)>  (1) 


>  <IC50 (nM)>  (1) 
 160

>  <Kd (nM)>  (1) 


>  <EC50 (nM)>  (1) 


>  <kon (M-1-s-1)>  (1) 


>  <koff (s-1)>  (1) 


>  <pH>  (1) 


>  <Temp C>  (1) 


>  <Curation/DataSource>  (1) 
ChEMBL

>  <Article DOI>  (1) 
10.1021/jm00075a014

>  <BindingDB Entry DOI>  (1) 
10.7270/Q25Q4V5H

>  <PMID>  (1) 
8246227

>  <PubChem AID>  (1) 


>  <Patent Number>  (1) 


>  <Authors>  (1) 
Ashton, WT; Hutchins, SM; Greenlee, WJ; Doss, GA; Chang, RS; Lotti, VJ; Faust, KA; Chen, TB; Zingaro, GJ; Kivlighn, SD

>  <Institution>  (1) 
Merck Research Laboratories

>  <Link to Ligand in BindingDB>  (1) 
http://www.bindingdb.org/bind/chemsearch/marvin/MolStructure.jsp?monomerid=50042533

>  <Link to Ligand-Target Pair in BindingDB>  (1) 
http://www.bindingdb.org/jsp/dbsearch/PrimarySearch_ki.jsp?energyterm=kJ/mole&tag=r21&monomerid=50042533&enzyme=Type-1+angiotensin+II+receptor&column=ki&startPg=0&Increment=50&submit=Search

>  <Ligand HET ID in PDB>  (1) 


>  <PDB ID(s) for Ligand-Target Complex>  (1) 


>  <PubChem CID of Ligand>  (1) 
14971694

>  <PubChem SID of Ligand>  (1) 
103974129

>  <ChEBI ID of Ligand>  (1) 


>  <ChEMBL ID of Ligand>  (1) 
CHEMBL120605

>  <DrugBank ID of Ligand>  (1) 


>  <IUPHAR_GRAC ID of Ligand>  (1) 


>  <KEGG ID of Ligand>  (1) 


>  <ZINC ID of Ligand>  (1) 
ZINC13833904

>  <Number of Protein Chains in Target (bigger than 1 implies a multichain complex)>  (1) 
1

>  <BindingDB Target Chain Sequence>  (1) 
MMLNSSTEDGIKRIQDDCPKAGRHNYIFVMIPTLYSIIFVVGIFGNSLAVIVIYFYMKLKTVASVFLLNLALADLCFLLTLPLWAVYTAMEYRWPFGNYLCKIASASVSFNLYASVFLLTCLSIDRYLAIVHPMKSRLRRTMLVAKVTCIIIWLLAGLASLPAIIHRNVFFIENTNITVCAFHYESQNSTLPIGLGLTKNILGFLFPFLIILTSYTLIWKALKKAYEIQKNKPRNDDIFKIIMAIVLFFFFSWVPHQIFTFLDVLIQLGVIHDCRIADIVDTAMPITICIAYFNNCLNPLFYGFLGKKFKKYFLQLLKYIPPKAKSHSNLSTKMSTLSYRPSDNVSSSSKKPVPCFEVE

>  <PDB ID(s) of Target Chain>  (1) 
6DO1,6OS0,6OS1,6OS2

>  <UniProt (SwissProt) Recommended Name of Target Chain>  (1) 
Type-1 angiotensin II receptor

>  <UniProt (SwissProt) Entry Name of Target Chain>  (1) 
AGTR1_RABIT

>  <UniProt (SwissProt) Primary ID of Target Chain>  (1) 
P34976

>  <UniProt (SwissProt) Secondary ID(s) of Target Chain>  (1) 


>  <UniProt (SwissProt) Alternative ID(s) of Target Chain>  (1) 


>  <UniProt (TrEMBL) Submitted Name of Target Chain>  (1) 


>  <UniProt (TrEMBL) Entry Name of Target Chain>  (1) 


>  <UniProt (TrEMBL) Primary ID of Target Chain>  (1) 


>  <UniProt (TrEMBL) Secondary ID(s) of Target Chain>  (1) 


>  <UniProt (TrEMBL) Alternative ID(s) of Target Chain>  (1) 


$$$$
