
     RDKit          2D

 34 38  0  0  0  0  0  0  0  0999 V2000
    9.0468   -8.3319    0.0000 N   0  0  0  0  0  0  0  0  0  0  0  0
    9.7600   -7.9184    0.0000 C   0  0  0  0  0  0  0  0  0  0  0  0
    9.7566   -7.0868    0.0000 C   0  0  0  0  0  0  0  0  0  0  0  0
    9.0447   -6.6782    0.0000 C   0  0  0  0  0  0  0  0  0  0  0  0
    8.3306   -7.9190    0.0000 C   0  0  0  0  0  0  0  0  0  0  0  0
    8.3275   -7.0941    0.0000 C   0  0  0  0  0  0  0  0  0  0  0  0
    7.5420   -6.8422    0.0000 N   0  0  0  0  0  0  0  0  0  0  0  0
    7.0598   -7.5114    0.0000 C   0  0  0  0  0  0  0  0  0  0  0  0
    7.5471   -8.1767    0.0000 N   0  0  0  0  0  0  0  0  0  0  0  0
    6.2346   -7.5145    0.0000 C   0  0  0  0  0  0  0  0  0  0  0  0
    5.8193   -6.8015    0.0000 C   0  0  0  0  0  0  0  0  0  0  0  0
    9.0428   -5.8531    0.0000 C   0  0  0  0  0  0  0  0  0  0  0  0
   10.4757   -8.3289    0.0000 C   0  0  0  0  0  0  0  0  0  0  0  0
    7.5376   -8.9986    0.0000 C   0  0  0  0  0  0  0  0  0  0  0  0
    8.2473   -9.4193    0.0000 C   0  0  0  0  0  0  0  0  0  0  0  0
    8.2341  -10.2425    0.0000 C   0  0  0  0  0  0  0  0  0  0  0  0
    8.9430  -10.6680    0.0000 C   0  0  0  0  0  0  0  0  0  0  0  0
    8.9607   -9.0127    0.0000 C   0  0  0  0  0  0  0  0  0  0  0  0
    9.6702   -9.4296    0.0000 C   0  0  0  0  0  0  0  0  0  0  0  0
    9.6664  -10.2545    0.0000 C   0  0  0  0  0  0  0  0  0  0  0  0
   10.4497  -10.5131    0.0000 N   0  0  0  0  0  0  0  0  0  0  0  0
   10.9378   -9.8480    0.0000 C   0  0  0  0  0  0  0  0  0  0  0  0
   10.4560   -9.1784    0.0000 C   0  0  0  0  0  0  0  0  0  0  0  0
   10.4401  -11.3379    0.0000 C   0  0  0  0  0  0  0  0  0  0  0  0
   11.1497  -11.7589    0.0000 C   0  0  0  0  0  0  0  0  0  0  0  0
   11.1364  -12.5820    0.0000 C   0  0  0  0  0  0  0  0  0  0  0  0
   11.8452  -13.0028    0.0000 C   0  0  0  0  0  0  0  0  0  0  0  0
   12.5656  -12.5987    0.0000 C   0  0  0  0  0  0  0  0  0  0  0  0
   12.5727  -11.7693    0.0000 C   0  0  0  0  0  0  0  0  0  0  0  0
   11.8632  -11.3522    0.0000 C   0  0  0  0  0  0  0  0  0  0  0  0
    9.7207  -11.7422    0.0000 C   0  0  0  0  0  0  0  0  0  0  0  0
    9.0110  -11.3212    0.0000 O   0  0  0  0  0  0  0  0  0  0  0  0
    8.2917  -11.7253    0.0000 C   0  0  0  0  0  0  0  0  0  0  0  0
    9.7110  -12.5671    0.0000 O   0  0  0  0  0  0  0  0  0  0  0  0
  6  7  1  0
 16 17  2  0
 17 20  1  0
  7  8  2  0
 19 18  1  0
 18 15  2  0
 19 20  2  0
  8  9  1  0
  9  5  1  0
  4  6  1  0
  8 10  1  0
  5  6  2  0
 20 21  1  0
 21 22  1  0
 22 23  1  0
 23 19  1  0
 10 11  1  0
 21 24  1  0
  1  2  2  0
 24 25  1  0
  4 12  1  0
 25 26  2  0
  5  1  1  0
 26 27  1  0
  2 13  1  0
 27 28  2  0
  2  3  1  0
 28 29  1  0
  9 14  1  0
 29 30  2  0
 30 25  1  0
 24 31  1  0
 14 15  1  0
 31 32  1  0
  3  4  2  0
 32 33  1  0
 15 16  1  0
 31 34  2  0
M  END
>  <From>  (1) 
www.bindingDB.org

>  <BindingDB Reactant_set_id>  (1) 
50062107

>  <Ligand InChI>  (1) 
InChI=1S/C28H30N4O2/c1-5-24-30-25-18(2)15-19(3)29-27(25)32(24)17-20-11-12-23-22(16-20)13-14-31(23)26(28(33)34-4)21-9-7-6-8-10-21/h6-12,15-16,26H,5,13-14,17H2,1-4H3

>  <Ligand InChI Key>  (1) 
GBGLYOQUQCNAPY-UHFFFAOYSA-N

>  <BindingDB MonomerID>  (1) 
50043431

>  <BindingDB Ligand Name>  (1) 
3-[5-(2-Ethyl-5,7-dimethyl-3H-imidazo[4,5-b]pyridin-4-ylmethyl)-2,3-dihydro-indol-1-yl]-3-phenyl-propionic acid methyl ester::CHEMBL135521

>  <Target Name>  (1) 
Type-1 angiotensin II receptor

>  <Target Source Organism According to Curator or DataSource>  (1) 
Oryctolagus cuniculus

>  <Ki (nM)>  (1) 


>  <IC50 (nM)>  (1) 
 170

>  <Kd (nM)>  (1) 


>  <EC50 (nM)>  (1) 


>  <kon (M-1-s-1)>  (1) 


>  <koff (s-1)>  (1) 


>  <pH>  (1) 


>  <Temp C>  (1) 


>  <Curation/DataSource>  (1) 
ChEMBL

>  <Article DOI>  (1) 
10.1021/jm00078a013

>  <BindingDB Entry DOI>  (1) 
10.7270/Q26M35X0

>  <PMID>  (1) 
8277505

>  <PubChem AID>  (1) 


>  <Patent Number>  (1) 


>  <Authors>  (1) 
Dhanoa, DS; Bagley, SW; Chang, RS; Lotti, VJ; Chen, TB; Kivlighn, SD; Zingaro, GJ; Siegl, PK; Patchett, AA; Greenlee, WJ

>  <Institution>  (1) 
Merck Research Laboratories

>  <Link to Ligand in BindingDB>  (1) 
http://www.bindingdb.org/bind/chemsearch/marvin/MolStructure.jsp?monomerid=50043431

>  <Link to Ligand-Target Pair in BindingDB>  (1) 
http://www.bindingdb.org/jsp/dbsearch/PrimarySearch_ki.jsp?energyterm=kJ/mole&tag=r21&monomerid=50043431&enzyme=Type-1+angiotensin+II+receptor&column=ki&startPg=0&Increment=50&submit=Search

>  <Ligand HET ID in PDB>  (1) 


>  <PDB ID(s) for Ligand-Target Complex>  (1) 


>  <PubChem CID of Ligand>  (1) 
10095493

>  <PubChem SID of Ligand>  (1) 
103974859

>  <ChEBI ID of Ligand>  (1) 


>  <ChEMBL ID of Ligand>  (1) 
CHEMBL135521

>  <DrugBank ID of Ligand>  (1) 


>  <IUPHAR_GRAC ID of Ligand>  (1) 


>  <KEGG ID of Ligand>  (1) 


>  <ZINC ID of Ligand>  (1) 
ZINC13732409

>  <Number of Protein Chains in Target (bigger than 1 implies a multichain complex)>  (1) 
1

>  <BindingDB Target Chain Sequence>  (1) 
MMLNSSTEDGIKRIQDDCPKAGRHNYIFVMIPTLYSIIFVVGIFGNSLAVIVIYFYMKLKTVASVFLLNLALADLCFLLTLPLWAVYTAMEYRWPFGNYLCKIASASVSFNLYASVFLLTCLSIDRYLAIVHPMKSRLRRTMLVAKVTCIIIWLLAGLASLPAIIHRNVFFIENTNITVCAFHYESQNSTLPIGLGLTKNILGFLFPFLIILTSYTLIWKALKKAYEIQKNKPRNDDIFKIIMAIVLFFFFSWVPHQIFTFLDVLIQLGVIHDCRIADIVDTAMPITICIAYFNNCLNPLFYGFLGKKFKKYFLQLLKYIPPKAKSHSNLSTKMSTLSYRPSDNVSSSSKKPVPCFEVE

>  <PDB ID(s) of Target Chain>  (1) 
6DO1,6OS0,6OS1,6OS2

>  <UniProt (SwissProt) Recommended Name of Target Chain>  (1) 
Type-1 angiotensin II receptor

>  <UniProt (SwissProt) Entry Name of Target Chain>  (1) 
AGTR1_RABIT

>  <UniProt (SwissProt) Primary ID of Target Chain>  (1) 
P34976

>  <UniProt (SwissProt) Secondary ID(s) of Target Chain>  (1) 


>  <UniProt (SwissProt) Alternative ID(s) of Target Chain>  (1) 


>  <UniProt (TrEMBL) Submitted Name of Target Chain>  (1) 


>  <UniProt (TrEMBL) Entry Name of Target Chain>  (1) 


>  <UniProt (TrEMBL) Primary ID of Target Chain>  (1) 


>  <UniProt (TrEMBL) Secondary ID(s) of Target Chain>  (1) 


>  <UniProt (TrEMBL) Alternative ID(s) of Target Chain>  (1) 


$$$$
