
     RDKit          2D

 42 46  0  0  0  0  0  0  0  0999 V2000
    3.3646  -17.8147    0.0000 C   0  0  0  0  0  0  0  0  0  0  0  0
    4.0668  -18.2482    0.0000 N   0  0  0  0  0  0  0  0  0  0  0  0
   -0.2056  -18.2375    0.0000 N   0  0  0  0  0  0  0  0  0  0  0  0
   -0.2068  -19.0648    0.0000 C   0  0  0  0  0  0  0  0  0  0  0  0
    0.5081  -19.4777    0.0000 N   0  0  0  0  0  0  0  0  0  0  0  0
    1.2245  -19.0644    0.0000 C   0  0  0  0  0  0  0  0  0  0  0  0
    1.2216  -18.2338    0.0000 C   0  0  0  0  0  0  0  0  0  0  0  0
    0.5062  -17.8247    0.0000 C   0  0  0  0  0  0  0  0  0  0  0  0
    0.5079  -20.3027    0.0000 C   0  0  0  0  0  0  0  0  0  0  0  0
    1.2222  -20.7154    0.0000 C   0  0  0  0  0  0  0  0  0  0  0  0
    1.2179  -21.5386    0.0000 C   0  0  0  0  0  0  0  0  0  0  0  0
    1.9314  -21.9512    0.0000 C   0  0  0  0  0  0  0  0  0  0  0  0
    2.6469  -21.5388    0.0000 C   0  0  0  0  0  0  0  0  0  0  0  0
    2.6445  -20.7095    0.0000 C   0  0  0  0  0  0  0  0  0  0  0  0
    1.9304  -20.3007    0.0000 C   0  0  0  0  0  0  0  0  0  0  0  0
    3.3611  -21.9500    0.0000 C   0  0  0  0  0  0  0  0  0  0  0  0
    3.3607  -22.7758    0.0000 C   0  0  0  0  0  0  0  0  0  0  0  0
    4.0747  -23.1877    0.0000 C   0  0  0  0  0  0  0  0  0  0  0  0
    4.7897  -22.7744    0.0000 C   0  0  0  0  0  0  0  0  0  0  0  0
    4.7861  -21.9451    0.0000 C   0  0  0  0  0  0  0  0  0  0  0  0
    4.0715  -21.5372    0.0000 C   0  0  0  0  0  0  0  0  0  0  0  0
    2.7094  -23.2841    0.0000 C   0  0  0  0  0  0  0  0  0  0  0  0
    1.9166  -23.0559    0.0000 N   0  0  0  0  0  0  0  0  0  0  0  0
    1.4546  -23.7394    0.0000 N   0  0  0  0  0  0  0  0  0  0  0  0
    1.9619  -24.3900    0.0000 N   0  0  0  0  0  0  0  0  0  0  0  0
    2.7374  -24.1086    0.0000 N   0  0  0  0  0  0  0  0  0  0  0  0
    1.9396  -19.4757    0.0000 O   0  0  0  0  0  0  0  0  0  0  0  0
   -0.9216  -19.4768    0.0000 C   0  0  0  0  0  0  0  0  0  0  0  0
   -1.6357  -19.0637    0.0000 C   0  0  0  0  0  0  0  0  0  0  0  0
   -2.3505  -19.4756    0.0000 C   0  0  0  0  0  0  0  0  0  0  0  0
   -3.0646  -19.0626    0.0000 C   0  0  0  0  0  0  0  0  0  0  0  0
    0.5038  -16.9997    0.0000 C   0  0  0  0  0  0  0  0  0  0  0  0
    1.9346  -17.8186    0.0000 C   0  0  0  0  0  0  0  0  0  0  0  0
    2.6506  -18.2284    0.0000 C   0  0  0  0  0  0  0  0  0  0  0  0
    3.3604  -16.9883    0.0000 O   0  0  0  0  0  0  0  0  0  0  0  0
    4.0383  -19.0783    0.0000 C   0  0  0  0  0  0  0  0  0  0  0  0
    4.7363  -19.5118    0.0000 C   0  0  0  0  0  0  0  0  0  0  0  0
    5.4652  -19.1243    0.0000 O   0  0  0  0  0  0  0  0  0  0  0  0
    5.4919  -18.2985    0.0000 C   0  0  0  0  0  0  0  0  0  0  0  0
    4.7895  -17.8603    0.0000 C   0  0  0  0  0  0  0  0  0  0  0  0
    4.7085  -20.3364    0.0000 C   0  0  0  0  0  0  0  0  0  0  0  0
    6.2197  -17.9100    0.0000 C   0  0  0  0  0  0  0  0  0  0  0  0
 21 16  2  0
 13 16  1  0
 25 26  1  0
 10 11  2  0
  3  4  2  0
 23 24  1  0
 11 12  1  0
  6  7  1  0
 12 13  2  0
 22 23  2  0
 24 25  2  0
 26 22  1  0
 17 22  1  0
  6 27  2  0
 13 14  1  0
  4 28  1  0
  7  8  2  0
 28 29  1  0
 14 15  2  0
 29 30  1  0
 15 10  1  0
 30 31  1  0
  8  3  1  0
  8 32  1  0
  4  5  1  0
  7 33  1  0
 16 17  1  0
 33 34  1  0
 34  1  1  0
  5  9  1  0
  1 35  2  0
  2 36  1  0
 17 18  2  0
  1  2  1  0
 18 19  1  0
  9 10  1  0
 19 20  2  0
  2 40  1  0
 36 37  1  0
 37 38  1  0
 38 39  1  0
 39 40  1  0
  5  6  1  0
 37 41  1  0
 20 21  1  0
 39 42  1  0
M  END
>  <From>  (1) 
www.bindingDB.org

>  <BindingDB Reactant_set_id>  (1) 
50718744

>  <Ligand InChI>  (1) 
InChI=1S/C32H39N7O3/c1-5-6-11-29-33-23(4)26(16-17-30(40)38-18-21(2)42-22(3)19-38)32(41)39(29)20-24-12-14-25(15-13-24)27-9-7-8-10-28(27)31-34-36-37-35-31/h7-10,12-15,21-22H,5-6,11,16-20H2,1-4H3,(H,34,35,36,37)

>  <Ligand InChI Key>  (1) 
UCPJSEUJNJFDQR-UHFFFAOYSA-N

>  <BindingDB MonomerID>  (1) 
50364572

>  <BindingDB Ligand Name>  (1) 
CHEMBL1951142

>  <Target Name>  (1) 
Type-1 angiotensin II receptor

>  <Target Source Organism According to Curator or DataSource>  (1) 
Oryctolagus cuniculus

>  <Ki (nM)>  (1) 


>  <IC50 (nM)>  (1) 
 13.1

>  <Kd (nM)>  (1) 


>  <EC50 (nM)>  (1) 


>  <kon (M-1-s-1)>  (1) 


>  <koff (s-1)>  (1) 


>  <pH>  (1) 


>  <Temp C>  (1) 


>  <Curation/DataSource>  (1) 
ChEMBL

>  <Article DOI>  (1) 
10.1016/j.bmcl.2011.12.116

>  <BindingDB Entry DOI>  (1) 
10.7270/Q22R3S48

>  <PMID>  (1) 
22264484

>  <PubChem AID>  (1) 


>  <Patent Number>  (1) 


>  <Authors>  (1) 
Kim, TW; Yoo, BW; Lee, JK; Kim, JH; Lee, KT; Chi, YH; Lee, JY

>  <Institution>  (1) 
Kyung Hee University

>  <Link to Ligand in BindingDB>  (1) 
http://www.bindingdb.org/bind/chemsearch/marvin/MolStructure.jsp?monomerid=50364572

>  <Link to Ligand-Target Pair in BindingDB>  (1) 
http://www.bindingdb.org/jsp/dbsearch/PrimarySearch_ki.jsp?energyterm=kJ/mole&tag=r21&monomerid=50364572&enzyme=Type-1+angiotensin+II+receptor&column=ki&startPg=0&Increment=50&submit=Search

>  <Ligand HET ID in PDB>  (1) 


>  <PDB ID(s) for Ligand-Target Complex>  (1) 


>  <PubChem CID of Ligand>  (1) 
57391456

>  <PubChem SID of Ligand>  (1) 
136968634

>  <ChEBI ID of Ligand>  (1) 


>  <ChEMBL ID of Ligand>  (1) 
CHEMBL1951142

>  <DrugBank ID of Ligand>  (1) 


>  <IUPHAR_GRAC ID of Ligand>  (1) 


>  <KEGG ID of Ligand>  (1) 


>  <ZINC ID of Ligand>  (1) 
ZINC73277676

>  <Number of Protein Chains in Target (bigger than 1 implies a multichain complex)>  (1) 
1

>  <BindingDB Target Chain Sequence>  (1) 
MMLNSSTEDGIKRIQDDCPKAGRHNYIFVMIPTLYSIIFVVGIFGNSLAVIVIYFYMKLKTVASVFLLNLALADLCFLLTLPLWAVYTAMEYRWPFGNYLCKIASASVSFNLYASVFLLTCLSIDRYLAIVHPMKSRLRRTMLVAKVTCIIIWLLAGLASLPAIIHRNVFFIENTNITVCAFHYESQNSTLPIGLGLTKNILGFLFPFLIILTSYTLIWKALKKAYEIQKNKPRNDDIFKIIMAIVLFFFFSWVPHQIFTFLDVLIQLGVIHDCRIADIVDTAMPITICIAYFNNCLNPLFYGFLGKKFKKYFLQLLKYIPPKAKSHSNLSTKMSTLSYRPSDNVSSSSKKPVPCFEVE

>  <PDB ID(s) of Target Chain>  (1) 
6DO1,6OS0,6OS1,6OS2

>  <UniProt (SwissProt) Recommended Name of Target Chain>  (1) 
Type-1 angiotensin II receptor

>  <UniProt (SwissProt) Entry Name of Target Chain>  (1) 
AGTR1_RABIT

>  <UniProt (SwissProt) Primary ID of Target Chain>  (1) 
P34976

>  <UniProt (SwissProt) Secondary ID(s) of Target Chain>  (1) 


>  <UniProt (SwissProt) Alternative ID(s) of Target Chain>  (1) 


>  <UniProt (TrEMBL) Submitted Name of Target Chain>  (1) 


>  <UniProt (TrEMBL) Entry Name of Target Chain>  (1) 


>  <UniProt (TrEMBL) Primary ID of Target Chain>  (1) 


>  <UniProt (TrEMBL) Secondary ID(s) of Target Chain>  (1) 


>  <UniProt (TrEMBL) Alternative ID(s) of Target Chain>  (1) 


$$$$
