
     RDKit          2D

 29 32  0  0  0  0  0  0  0  0999 V2000
    2.2227   -0.9682    0.0000 C   0  0  0  0  0  0  0  0  0  0  0  0
    2.4289    0.5270    0.0000 N   0  0  0  0  0  0  0  0  0  0  0  0
    1.8732   -0.2120    0.0000 N   0  0  0  0  0  0  0  0  0  0  0  0
    3.2023   -0.0573    0.0000 N   0  0  0  0  0  0  0  0  0  0  0  0
   -2.1080    0.6988    0.0000 C   0  0  0  0  0  0  0  0  0  0  0  0
    3.0418   -0.8651    0.0000 N   0  0  0  0  0  0  0  0  0  0  0  0
   -2.9845    1.8217    0.0000 N   0  0  0  0  0  0  0  0  0  0  0  0
   -2.7497    0.1833    0.0000 C   0  0  0  0  0  0  0  0  0  0  0  0
    1.8103   -1.6842    0.0000 C   0  0  0  0  0  0  0  0  0  0  0  0
   -2.2169    1.5066    0.0000 C   0  0  0  0  0  0  0  0  0  0  0  0
    1.0999   -2.0852    0.0000 C   0  0  0  0  0  0  0  0  0  0  0  0
   -3.5173    0.4926    0.0000 C   0  0  0  0  0  0  0  0  0  0  0  0
   -3.6376    1.3175    0.0000 C   0  0  0  0  0  0  0  0  0  0  0  0
    0.3839   -1.6670    0.0000 C   0  0  0  0  0  0  0  0  0  0  0  0
   -2.5377   -0.6187    0.0000 O   0  0  0  0  0  0  0  0  0  0  0  0
   -1.2831    0.6988    0.0000 C   0  0  0  0  0  0  0  0  0  0  0  0
   -0.8707   -0.0172    0.0000 O   0  0  0  0  0  0  0  0  0  0  0  0
   -0.3265   -2.0680    0.0000 C   0  0  0  0  0  0  0  0  0  0  0  0
    0.4010   -0.8421    0.0000 C   0  0  0  0  0  0  0  0  0  0  0  0
   -1.7300   -0.4010    0.0000 C   0  0  0  0  0  0  0  0  0  0  0  0
   -1.0254   -0.8249    0.0000 C   0  0  0  0  0  0  0  0  0  0  0  0
   -1.0425   -1.6498    0.0000 C   0  0  0  0  0  0  0  0  0  0  0  0
   -0.3093   -0.4182    0.0000 C   0  0  0  0  0  0  0  0  0  0  0  0
    2.5263   -2.1024    0.0000 C   0  0  0  0  0  0  0  0  0  0  0  0
    1.0885   -2.9101    0.0000 C   0  0  0  0  0  0  0  0  0  0  0  0
   -1.5753    2.0221    0.0000 C   0  0  0  0  0  0  0  0  0  0  0  0
   -4.3995    1.6269    0.0000 C   0  0  0  0  0  0  0  0  0  0  0  0
    1.7931   -3.3340    0.0000 C   0  0  0  0  0  0  0  0  0  0  0  0
    2.5149   -2.9273    0.0000 C   0  0  0  0  0  0  0  0  0  0  0  0
  2  3  1  0
  3  1  1  0
  4  6  1  0
  5  8  2  0
  6  1  2  0
  7 13  1  0
  8 15  1  0
  9  1  1  0
 10  5  1  0
 11  9  1  0
 12  8  1  0
 13 12  2  0
 14 11  1  0
 15 20  1  0
 16  5  1  0
 17 16  2  0
 18 14  2  0
 19 14  1  0
 20 21  1  0
 21 23  1  0
 22 18  1  0
 23 19  2  0
 24  9  2  0
 25 11  2  0
 26 10  1  0
 27 13  1  0
 28 29  2  0
 29 24  1  0
  2  4  2  0
 28 25  1  0
 22 21  2  0
  7 10  2  0
M  END
>  <From>  (1) 
www.bindingDB.org

>  <BindingDB Reactant_set_id>  (1) 
50035266

>  <Ligand InChI>  (1) 
InChI=1S/C22H19N5O2/c1-14-11-21(20(12-28)15(2)23-14)29-13-16-7-9-17(10-8-16)18-5-3-4-6-19(18)22-24-26-27-25-22/h3-12H,13H2,1-2H3,(H,24,25,26,27)

>  <Ligand InChI Key>  (1) 
YKXWSALUAAWVHP-UHFFFAOYSA-N

>  <BindingDB MonomerID>  (1) 
50047134

>  <BindingDB Ligand Name>  (1) 
2,6-Dimethyl-4-[2'-(1H-tetrazol-5-yl)-biphenyl-4-ylmethoxy]-pyridine-3-carbaldehyde::CHEMBL22837

>  <Target Name>  (1) 
Type-1 angiotensin II receptor

>  <Target Source Organism According to Curator or DataSource>  (1) 
Cavia porcellus

>  <Ki (nM)>  (1) 


>  <IC50 (nM)>  (1) 
 190

>  <Kd (nM)>  (1) 


>  <EC50 (nM)>  (1) 


>  <kon (M-1-s-1)>  (1) 


>  <koff (s-1)>  (1) 


>  <pH>  (1) 


>  <Temp C>  (1) 


>  <Curation/DataSource>  (1) 
ChEMBL

>  <Article DOI>  (1) 
10.1021/jm00061a016

>  <BindingDB Entry DOI>  (1) 
10.7270/Q2GM86CM

>  <PMID>  (1) 
8487261

>  <PubChem AID>  (1) 


>  <Patent Number>  (1) 


>  <Authors>  (1) 
Bradbury, RH; Allott, CP; Dennis, M; Girdwood, JA; Kenny, PW; Major, JS; Oldham, AA; Ratcliffe, AH; Rivett, JE; Roberts, DA

>  <Institution>  (1) 
Zeneca Pharmaceuticals

>  <Link to Ligand in BindingDB>  (1) 
http://www.bindingdb.org/bind/chemsearch/marvin/MolStructure.jsp?monomerid=50047134

>  <Link to Ligand-Target Pair in BindingDB>  (1) 
http://www.bindingdb.org/jsp/dbsearch/PrimarySearch_ki.jsp?energyterm=kJ/mole&tag=r21&monomerid=50047134&enzyme=Type-1+angiotensin+II+receptor&column=ki&startPg=0&Increment=50&submit=Search

>  <Ligand HET ID in PDB>  (1) 


>  <PDB ID(s) for Ligand-Target Complex>  (1) 


>  <PubChem CID of Ligand>  (1) 
14950502

>  <PubChem SID of Ligand>  (1) 
103977822

>  <ChEBI ID of Ligand>  (1) 


>  <ChEMBL ID of Ligand>  (1) 
CHEMBL22837

>  <DrugBank ID of Ligand>  (1) 


>  <IUPHAR_GRAC ID of Ligand>  (1) 


>  <KEGG ID of Ligand>  (1) 


>  <ZINC ID of Ligand>  (1) 
ZINC13826888

>  <Number of Protein Chains in Target (bigger than 1 implies a multichain complex)>  (1) 
1

>  <BindingDB Target Chain Sequence>  (1) 
MILNSSTEDGIKRIQDDCPKAGRHSYIFVMIPTLYSIIFVVGIFGNSLVVIVIYFYMKLKTVASVFLLNLALADICFLLTLPLWAVYTAMEYRWPFGNYLCKIASASVSFNLYASVFLLTCLSIDRYLAIVHPMKSRLRRTMLVAKVTCVIIWLMAGLASLPAVIHRNVFFIENTNITVCAFHYESQNSTLPIGLGLTKNILGFMFPFLIILTSYTLIWKALKKAYEIQKNKPRNDDIFKIIMAIVLFFFFSWVPHQIFTFLDVLIQLGIIHDCKISDIVDTAMPITICIAYFNNCLNPLFYGFLGKKFKKYFLQLLKYIPPKAKSHSTLSTKMSTLSYRPSDNVSSSAKKPVQCFEVE

>  <PDB ID(s) of Target Chain>  (1) 
4ZUD

>  <UniProt (SwissProt) Recommended Name of Target Chain>  (1) 
Type-1 angiotensin II receptor

>  <UniProt (SwissProt) Entry Name of Target Chain>  (1) 
AGTR1_CAVPO

>  <UniProt (SwissProt) Primary ID of Target Chain>  (1) 
Q9WV26

>  <UniProt (SwissProt) Secondary ID(s) of Target Chain>  (1) 


>  <UniProt (SwissProt) Alternative ID(s) of Target Chain>  (1) 


>  <UniProt (TrEMBL) Submitted Name of Target Chain>  (1) 


>  <UniProt (TrEMBL) Entry Name of Target Chain>  (1) 


>  <UniProt (TrEMBL) Primary ID of Target Chain>  (1) 


>  <UniProt (TrEMBL) Secondary ID(s) of Target Chain>  (1) 


>  <UniProt (TrEMBL) Alternative ID(s) of Target Chain>  (1) 


$$$$
