
     RDKit          2D

 40 44  0  0  0  0  0  0  0  0999 V2000
    6.9953   -8.9375    0.0000 N   0  0  0  0  0  0  0  0  0  0  0  0
    7.6542   -9.4245    0.0000 C   0  0  0  0  0  0  0  0  0  0  0  0
    7.3964  -10.2152    0.0000 C   0  0  0  0  0  0  0  0  0  0  0  0
    6.3250   -9.4245    0.0000 N   0  0  0  0  0  0  0  0  0  0  0  0
    7.1902   -8.1355    0.0000 C   0  0  0  0  0  0  0  0  0  0  0  0
    6.5714  -10.2152    0.0000 C   0  0  0  0  0  0  0  0  0  0  0  0
   11.2922   -9.3672    0.0000 C   0  0  0  0  0  0  0  0  0  0  0  0
   10.8855   -8.0953    0.0000 N   0  0  0  0  0  0  0  0  0  0  0  0
   10.6277   -8.8745    0.0000 N   0  0  0  0  0  0  0  0  0  0  0  0
   11.7105   -8.1011    0.0000 N   0  0  0  0  0  0  0  0  0  0  0  0
    6.6058   -7.5683    0.0000 C   0  0  0  0  0  0  0  0  0  0  0  0
   11.9625   -8.8859    0.0000 N   0  0  0  0  0  0  0  0  0  0  0  0
    8.4448   -9.1667    0.0000 C   0  0  0  0  0  0  0  0  0  0  0  0
   11.5730  -10.1464    0.0000 C   0  0  0  0  0  0  0  0  0  0  0  0
   11.1777  -10.8683    0.0000 C   0  0  0  0  0  0  0  0  0  0  0  0
    7.8891  -10.8797    0.0000 C   0  0  0  0  0  0  0  0  0  0  0  0
   10.3527  -10.8683    0.0000 C   0  0  0  0  0  0  0  0  0  0  0  0
    6.7948   -6.7777    0.0000 C   0  0  0  0  0  0  0  0  0  0  0  0
    9.2355   -9.5620    0.0000 O   0  0  0  0  0  0  0  0  0  0  0  0
    5.7980   -7.7745    0.0000 Cl  0  0  0  0  0  0  0  0  0  0  0  0
    9.9402  -11.5844    0.0000 C   0  0  0  0  0  0  0  0  0  0  0  0
    9.9344  -10.1636    0.0000 C   0  0  0  0  0  0  0  0  0  0  0  0
    8.7027  -10.8683    0.0000 C   0  0  0  0  0  0  0  0  0  0  0  0
    8.6167   -8.3589    0.0000 O   0  0  0  0  0  0  0  0  0  0  0  0
    7.9808   -7.9120    0.0000 C   0  0  0  0  0  0  0  0  0  0  0  0
    6.2105   -6.1933    0.0000 Cl  0  0  0  0  0  0  0  0  0  0  0  0
    9.1152  -11.5902    0.0000 C   0  0  0  0  0  0  0  0  0  0  0  0
    9.1152  -10.1636    0.0000 C   0  0  0  0  0  0  0  0  0  0  0  0
    6.0902  -10.8797    0.0000 C   0  0  0  0  0  0  0  0  0  0  0  0
   12.3980  -10.1464    0.0000 C   0  0  0  0  0  0  0  0  0  0  0  0
   11.5902  -11.5844    0.0000 C   0  0  0  0  0  0  0  0  0  0  0  0
    8.1813   -7.1214    0.0000 C   0  0  0  0  0  0  0  0  0  0  0  0
    7.5855   -6.5484    0.0000 C   0  0  0  0  0  0  0  0  0  0  0  0
    9.4073   -8.1355    0.0000 C   0  0  0  0  0  0  0  0  0  0  0  0
    5.2652  -10.8683    0.0000 C   0  0  0  0  0  0  0  0  0  0  0  0
    4.8469  -11.5730    0.0000 C   0  0  0  0  0  0  0  0  0  0  0  0
   12.8219  -10.8625    0.0000 C   0  0  0  0  0  0  0  0  0  0  0  0
   12.4152  -11.5730    0.0000 C   0  0  0  0  0  0  0  0  0  0  0  0
    9.6308   -7.3448    0.0000 C   0  0  0  0  0  0  0  0  0  0  0  0
    4.0219  -11.5730    0.0000 C   0  0  0  0  0  0  0  0  0  0  0  0
  2  1  1  0
  3  2  2  0
  4  1  1  0
  5  1  1  0
  6  4  2  0
  7 14  1  0
  8  9  1  0
  9  7  1  0
 10 12  1  0
 11  5  2  0
 12  7  2  0
 13  2  1  0
 14 15  1  0
 15 17  1  0
 16  3  1  0
 17 22  2  0
 18 11  1  0
 19 13  2  0
 20 11  1  0
 21 27  2  0
 22 28  1  0
 23 16  1  0
 24 13  1  0
 25  5  1  0
 26 18  1  0
 27 23  1  0
 28 23  2  0
 29  6  1  0
 30 14  2  0
 31 15  2  0
 32 25  2  0
 33 32  1  0
 34 24  1  0
 35 29  1  0
 36 35  1  0
 37 38  2  0
 38 31  1  0
 39 34  1  0
 40 36  1  0
  3  6  1  0
 18 33  2  0
 17 21  1  0
 37 30  1  0
  8 10  2  0
M  END
>  <From>  (1) 
www.bindingDB.org

>  <BindingDB Reactant_set_id>  (1) 
50061776

>  <Ligand InChI>  (1) 
InChI=1S/C30H28Cl2N6O2/c1-3-5-12-25-23(28(30(39)40-4-2)38(35-25)26-13-8-11-24(31)27(26)32)18-19-14-16-20(17-15-19)21-9-6-7-10-22(21)29-33-36-37-34-29/h6-11,13-17H,3-5,12,18H2,1-2H3,(H,33,34,36,37)

>  <Ligand InChI Key>  (1) 
YKLQGVQJYASHPG-UHFFFAOYSA-N

>  <BindingDB MonomerID>  (1) 
50042531

>  <BindingDB Ligand Name>  (1) 
5-Butyl-2-(2,3-dichloro-phenyl)-4-[2'-(1H-tetrazol-5-yl)-biphenyl-4-ylmethyl]-2H-pyrazole-3-carboxylic acid ethyl ester::CHEMBL419321

>  <Target Name>  (1) 
Type-1 angiotensin II receptor

>  <Target Source Organism According to Curator or DataSource>  (1) 
Oryctolagus cuniculus

>  <Ki (nM)>  (1) 


>  <IC50 (nM)>  (1) 
 90

>  <Kd (nM)>  (1) 


>  <EC50 (nM)>  (1) 


>  <kon (M-1-s-1)>  (1) 


>  <koff (s-1)>  (1) 


>  <pH>  (1) 


>  <Temp C>  (1) 


>  <Curation/DataSource>  (1) 
ChEMBL

>  <Article DOI>  (1) 
10.1021/jm00075a014

>  <BindingDB Entry DOI>  (1) 
10.7270/Q25Q4V5H

>  <PMID>  (1) 
8246227

>  <PubChem AID>  (1) 


>  <Patent Number>  (1) 


>  <Authors>  (1) 
Ashton, WT; Hutchins, SM; Greenlee, WJ; Doss, GA; Chang, RS; Lotti, VJ; Faust, KA; Chen, TB; Zingaro, GJ; Kivlighn, SD

>  <Institution>  (1) 
Merck Research Laboratories

>  <Link to Ligand in BindingDB>  (1) 
http://www.bindingdb.org/bind/chemsearch/marvin/MolStructure.jsp?monomerid=50042531

>  <Link to Ligand-Target Pair in BindingDB>  (1) 
http://www.bindingdb.org/jsp/dbsearch/PrimarySearch_ki.jsp?energyterm=kJ/mole&tag=r21&monomerid=50042531&enzyme=Type-1+angiotensin+II+receptor&column=ki&startPg=0&Increment=50&submit=Search

>  <Ligand HET ID in PDB>  (1) 


>  <PDB ID(s) for Ligand-Target Complex>  (1) 


>  <PubChem CID of Ligand>  (1) 
14971676

>  <PubChem SID of Ligand>  (1) 
103974127

>  <ChEBI ID of Ligand>  (1) 


>  <ChEMBL ID of Ligand>  (1) 
CHEMBL419321

>  <DrugBank ID of Ligand>  (1) 


>  <IUPHAR_GRAC ID of Ligand>  (1) 


>  <KEGG ID of Ligand>  (1) 


>  <ZINC ID of Ligand>  (1) 
ZINC26664982

>  <Number of Protein Chains in Target (bigger than 1 implies a multichain complex)>  (1) 
1

>  <BindingDB Target Chain Sequence>  (1) 
MMLNSSTEDGIKRIQDDCPKAGRHNYIFVMIPTLYSIIFVVGIFGNSLAVIVIYFYMKLKTVASVFLLNLALADLCFLLTLPLWAVYTAMEYRWPFGNYLCKIASASVSFNLYASVFLLTCLSIDRYLAIVHPMKSRLRRTMLVAKVTCIIIWLLAGLASLPAIIHRNVFFIENTNITVCAFHYESQNSTLPIGLGLTKNILGFLFPFLIILTSYTLIWKALKKAYEIQKNKPRNDDIFKIIMAIVLFFFFSWVPHQIFTFLDVLIQLGVIHDCRIADIVDTAMPITICIAYFNNCLNPLFYGFLGKKFKKYFLQLLKYIPPKAKSHSNLSTKMSTLSYRPSDNVSSSSKKPVPCFEVE

>  <PDB ID(s) of Target Chain>  (1) 
6DO1,6OS0,6OS1,6OS2

>  <UniProt (SwissProt) Recommended Name of Target Chain>  (1) 
Type-1 angiotensin II receptor

>  <UniProt (SwissProt) Entry Name of Target Chain>  (1) 
AGTR1_RABIT

>  <UniProt (SwissProt) Primary ID of Target Chain>  (1) 
P34976

>  <UniProt (SwissProt) Secondary ID(s) of Target Chain>  (1) 


>  <UniProt (SwissProt) Alternative ID(s) of Target Chain>  (1) 


>  <UniProt (TrEMBL) Submitted Name of Target Chain>  (1) 


>  <UniProt (TrEMBL) Entry Name of Target Chain>  (1) 


>  <UniProt (TrEMBL) Primary ID of Target Chain>  (1) 


>  <UniProt (TrEMBL) Secondary ID(s) of Target Chain>  (1) 


>  <UniProt (TrEMBL) Alternative ID(s) of Target Chain>  (1) 


$$$$
