
     RDKit          2D

 30 33  0  0  0  0  0  0  0  0999 V2000
   -4.8056  -16.1250    0.0000 C   0  0  0  0  0  0  0  0  0  0  0  0
   -4.8068  -16.9523    0.0000 C   0  0  0  0  0  0  0  0  0  0  0  0
   -4.0919  -17.3652    0.0000 C   0  0  0  0  0  0  0  0  0  0  0  0
   -4.0937  -15.7122    0.0000 C   0  0  0  0  0  0  0  0  0  0  0  0
   -3.3784  -16.1213    0.0000 C   0  0  0  0  0  0  0  0  0  0  0  0
   -3.3781  -16.9478    0.0000 C   0  0  0  0  0  0  0  0  0  0  0  0
   -2.5920  -17.2029    0.0000 N   0  0  0  0  0  0  0  0  0  0  0  0
   -2.1064  -16.5341    0.0000 C   0  0  0  0  0  0  0  0  0  0  0  0
   -2.5924  -15.8658    0.0000 N   0  0  0  0  0  0  0  0  0  0  0  0
   -4.0901  -18.1924    0.0000 C   0  0  0  0  0  0  0  0  0  0  0  0
   -4.8035  -18.6068    0.0000 O   0  0  0  0  0  0  0  0  0  0  0  0
   -3.3745  -18.6030    0.0000 O   0  0  0  0  0  0  0  0  0  0  0  0
   -2.3368  -17.9875    0.0000 C   0  0  0  0  0  0  0  0  0  0  0  0
   -1.5298  -18.1588    0.0000 C   0  0  0  0  0  0  0  0  0  0  0  0
   -1.2765  -18.9446    0.0000 C   0  0  0  0  0  0  0  0  0  0  0  0
   -0.4703  -19.1161    0.0000 C   0  0  0  0  0  0  0  0  0  0  0  0
    0.0825  -18.5025    0.0000 C   0  0  0  0  0  0  0  0  0  0  0  0
   -0.1765  -17.7147    0.0000 C   0  0  0  0  0  0  0  0  0  0  0  0
   -0.9821  -17.5469    0.0000 C   0  0  0  0  0  0  0  0  0  0  0  0
    0.8897  -18.6727    0.0000 N   0  0  0  0  0  0  0  0  0  0  0  0
    1.2273  -19.4227    0.0000 C   0  0  0  0  0  0  0  0  0  0  0  0
    2.0477  -19.3351    0.0000 C   0  0  0  0  0  0  0  0  0  0  0  0
    2.2179  -18.5278    0.0000 C   0  0  0  0  0  0  0  0  0  0  0  0
    1.5028  -18.1166    0.0000 C   0  0  0  0  0  0  0  0  0  0  0  0
    1.4155  -17.3007    0.0000 C   0  0  0  0  0  0  0  0  0  0  0  0
   -1.2814  -16.5338    0.0000 C   0  0  0  0  0  0  0  0  0  0  0  0
   -0.8691  -15.8192    0.0000 C   0  0  0  0  0  0  0  0  0  0  0  0
   -1.2819  -15.1049    0.0000 C   0  0  0  0  0  0  0  0  0  0  0  0
    2.0772  -16.8160    0.0000 O   0  0  0  0  0  0  0  0  0  0  0  0
    0.6640  -16.9671    0.0000 O   0  0  0  0  0  0  0  0  0  0  0  0
  1  2  2  0
 14 15  2  0
  5  4  2  0
 15 16  1  0
  6  7  1  0
 16 17  2  0
  7  8  1  0
 17 18  1  0
  8  9  2  0
 18 19  2  0
 19 14  1  0
  9  5  1  0
 17 20  1  0
 20 21  1  0
  4  1  1  0
  5  6  1  0
 10 11  1  0
 21 22  2  0
 22 23  1  0
 23 24  2  0
 24 20  1  0
 10 12  2  0
 24 25  1  0
  3 10  1  0
  8 26  1  0
  2  3  1  0
 26 27  1  0
  7 13  1  0
 27 28  1  0
  3  6  2  0
 13 14  1  0
 25 29  1  0
 25 30  2  0
M  END
>  <From>  (1) 
www.bindingDB.org

>  <BindingDB Reactant_set_id>  (1) 
50381248

>  <Ligand InChI>  (1) 
InChI=1S/C23H21N3O4/c1-2-5-20-24-18-7-3-6-17(22(27)28)21(18)26(20)14-15-9-11-16(12-10-15)25-13-4-8-19(25)23(29)30/h3-4,6-13H,2,5,14H2,1H3,(H,27,28)(H,29,30)

>  <Ligand InChI Key>  (1) 
ZROMIQFLNUUQEY-UHFFFAOYSA-N

>  <BindingDB MonomerID>  (1) 
50209831

>  <BindingDB Ligand Name>  (1) 
3-(4-(2-carboxy-1H-pyrrol-1-yl)benzyl)-2-propyl-3H-benzo[d]imidazole-4-carboxylic acid::CHEMBL393305

>  <Target Name>  (1) 
Type-1 angiotensin II receptor

>  <Target Source Organism According to Curator or DataSource>  (1) 
Bos taurus

>  <Ki (nM)>  (1) 


>  <IC50 (nM)>  (1) 
 92

>  <Kd (nM)>  (1) 


>  <EC50 (nM)>  (1) 


>  <kon (M-1-s-1)>  (1) 


>  <koff (s-1)>  (1) 


>  <pH>  (1) 


>  <Temp C>  (1) 


>  <Curation/DataSource>  (1) 
ChEMBL

>  <Article DOI>  (1) 
10.1016/j.bmcl.2007.02.042

>  <BindingDB Entry DOI>  (1) 
10.7270/Q2C82908

>  <PMID>  (1) 
17412584

>  <PubChem AID>  (1) 


>  <Patent Number>  (1) 


>  <Authors>  (1) 
Xu, JY; Zeng, Y; Ran, Q; Wei, Z; Bi, Y; He, QH; Wang, QJ; Hu, S; Zhang, J; Tang, MY; Hua, WY; Wu, XM

>  <Institution>  (1) 
China Pharmaceutical University

>  <Link to Ligand in BindingDB>  (1) 
http://www.bindingdb.org/bind/chemsearch/marvin/MolStructure.jsp?monomerid=50209831

>  <Link to Ligand-Target Pair in BindingDB>  (1) 
http://www.bindingdb.org/jsp/dbsearch/PrimarySearch_ki.jsp?energyterm=kJ/mole&tag=r21&monomerid=50209831&enzyme=Type-1+angiotensin+II+receptor&column=ki&startPg=0&Increment=50&submit=Search

>  <Ligand HET ID in PDB>  (1) 


>  <PDB ID(s) for Ligand-Target Complex>  (1) 


>  <PubChem CID of Ligand>  (1) 
44438900

>  <PubChem SID of Ligand>  (1) 
104086519

>  <ChEBI ID of Ligand>  (1) 


>  <ChEMBL ID of Ligand>  (1) 
CHEMBL393305

>  <DrugBank ID of Ligand>  (1) 


>  <IUPHAR_GRAC ID of Ligand>  (1) 


>  <KEGG ID of Ligand>  (1) 


>  <ZINC ID of Ligand>  (1) 
ZINC28885530

>  <Number of Protein Chains in Target (bigger than 1 implies a multichain complex)>  (1) 
1

>  <BindingDB Target Chain Sequence>  (1) 
MILNSSTEDGIKRIQDDCPKAGRHNYIFIMIPTLYSIIFVVGIFGNSLVVIVIYFYMKLKTVASVFLLNLALADLCFLLTLPLWAVYTAMEYRWPFGNYLCKIASASVSFNLYASVFLLTCLSIDRYLAIVHPMKSRLRRTMLVAKVTCIIIWLLAGLASLPTIIHRNVFFIENTNITVCAFHYESQNSTLPVGLGLTKNILGFLFPFLIILTSYTLIWKTLKKAYEIQKNKPRKDDIFKIILAIVLFFFFSWVPHQIFTFMDVLIQLGLIRDCKIEDIVDTAMPITICLAYFNNCLNPLFYGFLGKKFKKYFLQLLKYIPPKAKSHSNLSTKMSTLSYRPSENGNSSTKKPAPCIEVE

>  <PDB ID(s) of Target Chain>  (1) 


>  <UniProt (SwissProt) Recommended Name of Target Chain>  (1) 
Type-1 angiotensin II receptor

>  <UniProt (SwissProt) Entry Name of Target Chain>  (1) 
AGTR1_BOVIN

>  <UniProt (SwissProt) Primary ID of Target Chain>  (1) 
P25104

>  <UniProt (SwissProt) Secondary ID(s) of Target Chain>  (1) 


>  <UniProt (SwissProt) Alternative ID(s) of Target Chain>  (1) 


>  <UniProt (TrEMBL) Submitted Name of Target Chain>  (1) 


>  <UniProt (TrEMBL) Entry Name of Target Chain>  (1) 


>  <UniProt (TrEMBL) Primary ID of Target Chain>  (1) 


>  <UniProt (TrEMBL) Secondary ID(s) of Target Chain>  (1) 


>  <UniProt (TrEMBL) Alternative ID(s) of Target Chain>  (1) 


$$$$
