
     RDKit          2D

 41 45  0  0  0  0  0  0  0  0999 V2000
   -0.3764   -2.5791    0.0000 C   0  0  0  0  0  0  0  0  0  0  0  0
   -0.3776   -3.4065    0.0000 C   0  0  0  0  0  0  0  0  0  0  0  0
    0.3372   -3.8194    0.0000 C   0  0  0  0  0  0  0  0  0  0  0  0
    0.3354   -2.1664    0.0000 C   0  0  0  0  0  0  0  0  0  0  0  0
    1.0508   -2.5755    0.0000 C   0  0  0  0  0  0  0  0  0  0  0  0
    1.0556   -3.4019    0.0000 C   0  0  0  0  0  0  0  0  0  0  0  0
    1.8431   -3.6528    0.0000 N   0  0  0  0  0  0  0  0  0  0  0  0
    2.3251   -2.9813    0.0000 C   0  0  0  0  0  0  0  0  0  0  0  0
    1.8353   -2.3156    0.0000 N   0  0  0  0  0  0  0  0  0  0  0  0
    3.1500   -2.9764    0.0000 C   0  0  0  0  0  0  0  0  0  0  0  0
    3.5583   -2.2595    0.0000 C   0  0  0  0  0  0  0  0  0  0  0  0
    4.3833   -2.2547    0.0000 C   0  0  0  0  0  0  0  0  0  0  0  0
    2.1026   -4.4359    0.0000 C   0  0  0  0  0  0  0  0  0  0  0  0
    2.9250   -4.4333    0.0000 C   0  0  0  0  0  0  0  0  0  0  0  0
    3.3365   -5.1466    0.0000 C   0  0  0  0  0  0  0  0  0  0  0  0
    4.1581   -5.1444    0.0000 C   0  0  0  0  0  0  0  0  0  0  0  0
    4.5679   -4.4304    0.0000 C   0  0  0  0  0  0  0  0  0  0  0  0
    4.1501   -3.7171    0.0000 C   0  0  0  0  0  0  0  0  0  0  0  0
    3.3299   -3.7228    0.0000 C   0  0  0  0  0  0  0  0  0  0  0  0
    5.3897   -4.4266    0.0000 C   0  0  0  0  0  0  0  0  0  0  0  0
    5.8048   -5.1408    0.0000 C   0  0  0  0  0  0  0  0  0  0  0  0
    6.6290   -5.1375    0.0000 C   0  0  0  0  0  0  0  0  0  0  0  0
    7.0392   -4.4207    0.0000 C   0  0  0  0  0  0  0  0  0  0  0  0
    6.6191   -3.7057    0.0000 C   0  0  0  0  0  0  0  0  0  0  0  0
    5.7962   -3.7125    0.0000 C   0  0  0  0  0  0  0  0  0  0  0  0
    5.3765   -3.0002    0.0000 C   0  0  0  0  0  0  0  0  0  0  0  0
    5.7838   -2.2828    0.0000 O   0  0  0  0  0  0  0  0  0  0  0  0
    4.5515   -3.0062    0.0000 O   0  0  0  0  0  0  0  0  0  0  0  0
    0.3330   -1.3414    0.0000 C   0  0  0  0  0  0  0  0  0  0  0  0
   -1.0924   -3.8184    0.0000 C   0  0  0  0  0  0  0  0  0  0  0  0
   -1.8065   -3.4054    0.0000 N   0  0  0  0  0  0  0  0  0  0  0  0
   -1.0930   -4.6434    0.0000 O   0  0  0  0  0  0  0  0  0  0  0  0
   -2.5213   -3.8173    0.0000 C   0  0  0  0  0  0  0  0  0  0  0  0
   -3.2355   -3.4042    0.0000 C   0  0  0  0  0  0  0  0  0  0  0  0
   -4.6639   -2.5750    0.0000 C   0  0  0  0  0  0  0  0  0  0  0  0
   -4.6651   -3.4023    0.0000 C   0  0  0  0  0  0  0  0  0  0  0  0
   -3.9503   -3.8152    0.0000 C   0  0  0  0  0  0  0  0  0  0  0  0
   -3.2367   -2.5713    0.0000 C   0  0  0  0  0  0  0  0  0  0  0  0
   -3.9521   -2.1622    0.0000 C   0  0  0  0  0  0  0  0  0  0  0  0
   -5.3785   -2.1626    0.0000 O   0  0  0  0  0  0  0  0  0  0  0  0
   -5.3787   -1.3376    0.0000 C   0  0  0  0  0  0  0  0  0  0  0  0
  9  5  1  0
  4  1  2  0
 20 21  2  0
  8 10  1  0
 21 22  1  0
  5  6  2  0
 22 23  2  0
 10 11  1  0
 23 24  1  0
 24 25  2  0
 25 20  1  0
 17 20  1  0
 11 12  1  0
  2  3  2  0
  7 13  1  0
 26 27  1  0
 26 28  2  0
 25 26  1  0
  3  6  1  0
  4 29  1  0
 13 14  1  0
  2 30  1  0
  1  2  1  0
 30 31  1  0
 14 15  2  0
 30 32  2  0
  5  4  1  0
 31 33  1  0
 15 16  1  0
 33 34  1  0
  6  7  1  0
 16 17  2  0
 35 36  2  0
  7  8  1  0
 36 37  1  0
 37 34  2  0
 17 18  1  0
 34 38  1  0
  8  9  2  0
 38 39  2  0
 39 35  1  0
 18 19  2  0
 35 40  1  0
 19 14  1  0
 40 41  1  0
M  END
>  <From>  (1) 
www.bindingDB.org

>  <BindingDB Reactant_set_id>  (1) 
50716814

>  <Ligand InChI>  (1) 
InChI=1S/C34H33N3O4/c1-4-7-31-36-32-22(2)18-26(33(38)35-20-23-12-16-27(41-3)17-13-23)19-30(32)37(31)21-24-10-14-25(15-11-24)28-8-5-6-9-29(28)34(39)40/h5-6,8-19H,4,7,20-21H2,1-3H3,(H,35,38)(H,39,40)

>  <Ligand InChI Key>  (1) 
LMZZNBSYLVXJQQ-UHFFFAOYSA-N

>  <BindingDB MonomerID>  (1) 
50363828

>  <BindingDB Ligand Name>  (1) 
CHEMBL1947131

>  <Target Name>  (1) 
Type-1 angiotensin II receptor

>  <Target Source Organism According to Curator or DataSource>  (1) 
Homo sapiens

>  <Ki (nM)>  (1) 


>  <IC50 (nM)>  (1) 
 4.3

>  <Kd (nM)>  (1) 


>  <EC50 (nM)>  (1) 


>  <kon (M-1-s-1)>  (1) 


>  <koff (s-1)>  (1) 


>  <pH>  (1) 


>  <Temp C>  (1) 


>  <Curation/DataSource>  (1) 
ChEMBL

>  <Article DOI>  (1) 
10.1016/j.ejmech.2012.01.009

>  <BindingDB Entry DOI>  (1) 
10.7270/Q29K4BPW

>  <PMID>  (1) 
22309912

>  <PubChem AID>  (1) 


>  <Patent Number>  (1) 


>  <Authors>  (1) 
Wang, JL; Zhang, J; Zhou, ZM; Li, ZH; Xue, WZ; Xu, D; Hao, LP; Han, XF; Fei, F; Liu, T; Liang, AH

>  <Institution>  (1) 
Beijing Institute of Technology

>  <Link to Ligand in BindingDB>  (1) 
http://www.bindingdb.org/bind/chemsearch/marvin/MolStructure.jsp?monomerid=50363828

>  <Link to Ligand-Target Pair in BindingDB>  (1) 
http://www.bindingdb.org/jsp/dbsearch/PrimarySearch_ki.jsp?energyterm=kJ/mole&tag=r21&monomerid=50363828&enzyme=Type-1+angiotensin+II+receptor&column=ki&startPg=0&Increment=50&submit=Search

>  <Ligand HET ID in PDB>  (1) 


>  <PDB ID(s) for Ligand-Target Complex>  (1) 


>  <PubChem CID of Ligand>  (1) 
57380414

>  <PubChem SID of Ligand>  (1) 
136967890

>  <ChEBI ID of Ligand>  (1) 


>  <ChEMBL ID of Ligand>  (1) 
CHEMBL1947131

>  <DrugBank ID of Ligand>  (1) 


>  <IUPHAR_GRAC ID of Ligand>  (1) 


>  <KEGG ID of Ligand>  (1) 


>  <ZINC ID of Ligand>  (1) 
ZINC72316988

>  <Number of Protein Chains in Target (bigger than 1 implies a multichain complex)>  (1) 
1

>  <BindingDB Target Chain Sequence>  (1) 
MILNSSTEDGIKRIQDDCPKAGRHNYIFVMIPTLYSIIFVVGIFGNSLVVIVIYFYMKLKTVASVFLLNLALADLCFLLTLPLWAVYTAMEYRWPFGNYLCKIASASVSFNLYASVFLLTCLSIDRYLAIVHPMKSRLRRTMLVAKVTCIIIWLLAGLASLPAIIHRNVFFIENTNITVCAFHYESQNSTLPIGLGLTKNILGFLFPFLIILTSYTLIWKALKKAYEIQKNKPRNDDIFKIIMAIVLFFFFSWIPHQIFTFLDVLIQLGIIRDCRIADIVDTAMPITICIAYFNNCLNPLFYGFLGKKFKRYFLQLLKYIPPKAKSHSNLSTKMSTLSYRPSDNVSSSTKKPAPCFEVE

>  <PDB ID(s) of Target Chain>  (1) 
6DO1,6OS0,6OS1,6OS2

>  <UniProt (SwissProt) Recommended Name of Target Chain>  (1) 
Type-1 angiotensin II receptor

>  <UniProt (SwissProt) Entry Name of Target Chain>  (1) 
AGTR1_HUMAN

>  <UniProt (SwissProt) Primary ID of Target Chain>  (1) 
P30556

>  <UniProt (SwissProt) Secondary ID(s) of Target Chain>  (1) 
Q13725 Q8TBK4

>  <UniProt (SwissProt) Alternative ID(s) of Target Chain>  (1) 


>  <UniProt (TrEMBL) Submitted Name of Target Chain>  (1) 


>  <UniProt (TrEMBL) Entry Name of Target Chain>  (1) 


>  <UniProt (TrEMBL) Primary ID of Target Chain>  (1) 


>  <UniProt (TrEMBL) Secondary ID(s) of Target Chain>  (1) 


>  <UniProt (TrEMBL) Alternative ID(s) of Target Chain>  (1) 


$$$$
