
     RDKit          2D

 34 37  0  0  0  0  0  0  0  0999 V2000
    2.5750   -2.0542    0.0000 N   0  0  0  0  0  0  0  0  0  0  0  0
    2.7625   -1.4792    0.0000 C   0  0  0  0  0  0  0  0  0  0  0  0
    3.0625   -2.4042    0.0000 C   0  0  0  0  0  0  0  0  0  0  0  0
    3.5417   -2.0542    0.0000 N   0  0  0  0  0  0  0  0  0  0  0  0
    3.3625   -1.4792    0.0000 C   0  0  0  0  0  0  0  0  0  0  0  0
    2.4042   -0.9917    0.0000 C   0  0  0  0  0  0  0  0  0  0  0  0
    1.4042   -0.6042    0.0000 N   0  0  0  0  0  0  0  0  0  0  0  0
    1.8125   -1.0542    0.0000 C   0  0  0  0  0  0  0  0  0  0  0  0
    0.8542   -1.4042    0.0000 N   0  0  0  0  0  0  0  0  0  0  0  0
    0.8625   -0.8542    0.0000 C   0  0  0  0  0  0  0  0  0  0  0  0
    1.5042   -1.5750    0.0000 C   0  0  0  0  0  0  0  0  0  0  0  0
    3.8125    0.7208    0.0000 C   0  0  0  0  0  0  0  0  0  0  0  0
    2.0042   -2.2375    0.0000 C   0  0  0  0  0  0  0  0  0  0  0  0
    1.5292   -0.0167    0.0000 C   0  0  0  0  0  0  0  0  0  0  0  0
    3.0250   -2.8042    0.0000 O   0  0  0  0  0  0  0  0  0  0  0  0
    3.7125   -0.9917    0.0000 O   0  0  0  0  0  0  0  0  0  0  0  0
    3.2292    0.5750    0.0000 C   0  0  0  0  0  0  0  0  0  0  0  0
    3.9792    1.2958    0.0000 O   0  0  0  0  0  0  0  0  0  0  0  0
    3.1167   -0.0542    0.0000 C   0  0  0  0  0  0  0  0  0  0  0  0
    2.8042    0.9875    0.0000 C   0  0  0  0  0  0  0  0  0  0  0  0
    2.1042    0.1625    0.0000 C   0  0  0  0  0  0  0  0  0  0  0  0
    4.2292    0.2833    0.0000 O   0  0  0  0  0  0  0  0  0  0  0  0
    1.8792   -2.8250    0.0000 C   0  0  0  0  0  0  0  0  0  0  0  0
    2.5500   -0.2417    0.0000 C   0  0  0  0  0  0  0  0  0  0  0  0
    2.2292    0.7458    0.0000 C   0  0  0  0  0  0  0  0  0  0  0  0
    0.3417   -0.5542    0.0000 C   0  0  0  0  0  0  0  0  0  0  0  0
    1.3042   -3.0042    0.0000 C   0  0  0  0  0  0  0  0  0  0  0  0
    2.3167   -3.2167    0.0000 C   0  0  0  0  0  0  0  0  0  0  0  0
   -0.1833   -0.8542    0.0000 C   0  0  0  0  0  0  0  0  0  0  0  0
   -0.7000   -0.5542    0.0000 C   0  0  0  0  0  0  0  0  0  0  0  0
   -1.2208   -0.8542    0.0000 C   0  0  0  0  0  0  0  0  0  0  0  0
    2.1917   -3.8042    0.0000 C   0  0  0  0  0  0  0  0  0  0  0  0
    1.1792   -3.5917    0.0000 C   0  0  0  0  0  0  0  0  0  0  0  0
    1.6292   -3.9917    0.0000 C   0  0  0  0  0  0  0  0  0  0  0  0
  2  1  1  0
  3  1  1  0
  4  3  1  0
  5  2  1  0
  6  2  2  0
  7  8  1  0
  8  6  1  0
  9 11  1  0
 10  7  1  0
 11  8  2  0
 12 17  1  0
 13  1  1  0
 14  7  1  0
 15  3  2  0
 16  5  2  0
 17 20  2  0
 18 12  2  0
 19 24  2  0
 20 25  1  0
 21 14  1  0
 22 12  1  0
 23 13  1  0
 24 21  1  0
 25 21  2  0
 26 10  1  0
 27 23  2  0
 28 23  1  0
 29 26  1  0
 30 29  1  0
 31 30  1  0
 32 28  2  0
 33 27  1  0
 34 32  1  0
  5  4  1  0
 33 34  2  0
 10  9  2  0
 19 17  1  0
M  END
>  <From>  (1) 
www.bindingDB.org

>  <BindingDB Reactant_set_id>  (1) 
51186072

>  <Ligand InChI>  (1) 
InChI=1S/C26H26N4O4/c1-2-3-9-23-27-15-21(29(23)16-19-10-12-20(13-11-19)25(32)33)14-22-24(31)28-26(34)30(22)17-18-7-5-4-6-8-18/h4-8,10-15H,2-3,9,16-17H2,1H3,(H,32,33)(H,28,31,34)/b22-14-

>  <Ligand InChI Key>  (1) 
JVGDBLGTHRLTPK-HMAPJEAMSA-N

>  <BindingDB MonomerID>  (1) 
50487690

>  <BindingDB Ligand Name>  (1) 
CHEMBL331859

>  <Target Name>  (1) 
Type-1 angiotensin II receptor

>  <Target Source Organism According to Curator or DataSource>  (1) 
Homo sapiens

>  <Ki (nM)>  (1) 


>  <IC50 (nM)>  (1) 
 4.0

>  <Kd (nM)>  (1) 


>  <EC50 (nM)>  (1) 


>  <kon (M-1-s-1)>  (1) 


>  <koff (s-1)>  (1) 


>  <pH>  (1) 


>  <Temp C>  (1) 


>  <Curation/DataSource>  (1) 
ChEMBL

>  <Article DOI>  (1) 
10.1007/s00044-009-9205-9

>  <BindingDB Entry DOI>  (1) 
10.7270/Q2CC13K2

>  <PMID>  (1) 


>  <PubChem AID>  (1) 


>  <Patent Number>  (1) 


>  <Authors>  (1) 
n/a

>  <Institution>  (1) 
n/a

>  <Link to Ligand in BindingDB>  (1) 
http://www.bindingdb.org/bind/chemsearch/marvin/MolStructure.jsp?monomerid=50487690

>  <Link to Ligand-Target Pair in BindingDB>  (1) 
http://www.bindingdb.org/jsp/dbsearch/PrimarySearch_ki.jsp?energyterm=kJ/mole&tag=r21&monomerid=50487690&enzyme=Type-1+angiotensin+II+receptor&column=ki&startPg=0&Increment=50&submit=Search

>  <Ligand HET ID in PDB>  (1) 


>  <PDB ID(s) for Ligand-Target Complex>  (1) 


>  <PubChem CID of Ligand>  (1) 
10049809

>  <PubChem SID of Ligand>  (1) 
433954955

>  <ChEBI ID of Ligand>  (1) 


>  <ChEMBL ID of Ligand>  (1) 


>  <DrugBank ID of Ligand>  (1) 


>  <IUPHAR_GRAC ID of Ligand>  (1) 


>  <KEGG ID of Ligand>  (1) 


>  <ZINC ID of Ligand>  (1) 


>  <Number of Protein Chains in Target (bigger than 1 implies a multichain complex)>  (1) 
1

>  <BindingDB Target Chain Sequence>  (1) 
MILNSSTEDGIKRIQDDCPKAGRHNYIFVMIPTLYSIIFVVGIFGNSLVVIVIYFYMKLKTVASVFLLNLALADLCFLLTLPLWAVYTAMEYRWPFGNYLCKIASASVSFNLYASVFLLTCLSIDRYLAIVHPMKSRLRRTMLVAKVTCIIIWLLAGLASLPAIIHRNVFFIENTNITVCAFHYESQNSTLPIGLGLTKNILGFLFPFLIILTSYTLIWKALKKAYEIQKNKPRNDDIFKIIMAIVLFFFFSWIPHQIFTFLDVLIQLGIIRDCRIADIVDTAMPITICIAYFNNCLNPLFYGFLGKKFKRYFLQLLKYIPPKAKSHSNLSTKMSTLSYRPSDNVSSSTKKPAPCFEVE

>  <PDB ID(s) of Target Chain>  (1) 
6DO1,6OS0,6OS1,6OS2

>  <UniProt (SwissProt) Recommended Name of Target Chain>  (1) 
Type-1 angiotensin II receptor

>  <UniProt (SwissProt) Entry Name of Target Chain>  (1) 
AGTR1_HUMAN

>  <UniProt (SwissProt) Primary ID of Target Chain>  (1) 
P30556

>  <UniProt (SwissProt) Secondary ID(s) of Target Chain>  (1) 
Q13725 Q8TBK4

>  <UniProt (SwissProt) Alternative ID(s) of Target Chain>  (1) 


>  <UniProt (TrEMBL) Submitted Name of Target Chain>  (1) 


>  <UniProt (TrEMBL) Entry Name of Target Chain>  (1) 


>  <UniProt (TrEMBL) Primary ID of Target Chain>  (1) 


>  <UniProt (TrEMBL) Secondary ID(s) of Target Chain>  (1) 


>  <UniProt (TrEMBL) Alternative ID(s) of Target Chain>  (1) 


$$$$
