
     RDKit          2D

 40 43  0  0  0  0  0  0  0  0999 V2000
    0.7792   -1.5167    0.0000 N   0  0  0  0  0  0  0  0  0  0  0  0
    1.4500   -1.0292    0.0000 C   0  0  0  0  0  0  0  0  0  0  0  0
    1.1917   -0.2417    0.0000 N   0  0  0  0  0  0  0  0  0  0  0  0
    0.3667   -0.2417    0.0000 N   0  0  0  0  0  0  0  0  0  0  0  0
    0.1167   -1.0292    0.0000 C   0  0  0  0  0  0  0  0  0  0  0  0
    4.3542   -3.5792    0.0000 C   0  0  0  0  0  0  0  0  0  0  0  0
    5.9792   -0.3125    0.0000 C   0  0  0  0  0  0  0  0  0  0  0  0
    5.0667   -3.9917    0.0000 C   0  0  0  0  0  0  0  0  0  0  0  0
    5.7792   -3.5792    0.0000 C   0  0  0  0  0  0  0  0  0  0  0  0
    5.7667   -2.7500    0.0000 C   0  0  0  0  0  0  0  0  0  0  0  0
    3.6417   -3.9917    0.0000 N   0  0  0  0  0  0  0  0  0  0  0  0
    2.2750   -1.0292    0.0000 S   0  0  0  0  0  0  0  0  0  0  0  0
    0.7792   -2.3417    0.0000 C   0  0  0  0  0  0  0  0  0  0  0  0
    5.1542   -0.3167    0.0000 C   0  0  0  0  0  0  0  0  0  0  0  0
    4.3542   -2.7542    0.0000 O   0  0  0  0  0  0  0  0  0  0  0  0
    5.0542   -2.3417    0.0000 O   0  0  0  0  0  0  0  0  0  0  0  0
    6.7292   -0.3125    0.0000 F   0  0  0  0  0  0  0  0  0  0  0  0
    6.5250   -0.9792    0.0000 F   0  0  0  0  0  0  0  0  0  0  0  0
    6.5250    0.3583    0.0000 F   0  0  0  0  0  0  0  0  0  0  0  0
    4.7417   -1.0292    0.0000 C   0  0  0  0  0  0  0  0  0  0  0  0
    4.7375    0.4000    0.0000 C   0  0  0  0  0  0  0  0  0  0  0  0
    2.9250   -3.5792    0.0000 C   0  0  0  0  0  0  0  0  0  0  0  0
    1.4917   -2.7542    0.0000 C   0  0  0  0  0  0  0  0  0  0  0  0
    2.6792   -0.3125    0.0000 C   0  0  0  0  0  0  0  0  0  0  0  0
    6.4792   -2.3292    0.0000 O   0  0  0  0  0  0  0  0  0  0  0  0
    3.5042   -0.3125    0.0000 C   0  0  0  0  0  0  0  0  0  0  0  0
    3.9167   -1.0292    0.0000 C   0  0  0  0  0  0  0  0  0  0  0  0
    3.9167    0.4000    0.0000 C   0  0  0  0  0  0  0  0  0  0  0  0
    2.2167   -3.9917    0.0000 C   0  0  0  0  0  0  0  0  0  0  0  0
    2.9250   -2.7542    0.0000 C   0  0  0  0  0  0  0  0  0  0  0  0
    2.2125   -2.3417    0.0000 C   0  0  0  0  0  0  0  0  0  0  0  0
    1.5000   -3.5792    0.0000 C   0  0  0  0  0  0  0  0  0  0  0  0
   -0.7083   -1.0292    0.0000 C   0  0  0  0  0  0  0  0  0  0  0  0
    5.0667   -4.8167    0.0000 C   0  0  0  0  0  0  0  0  0  0  0  0
    6.4917   -3.9875    0.0000 C   0  0  0  0  0  0  0  0  0  0  0  0
   -1.1208   -0.3167    0.0000 C   0  0  0  0  0  0  0  0  0  0  0  0
   -1.9458   -0.3167    0.0000 C   0  0  0  0  0  0  0  0  0  0  0  0
    5.7792   -5.2292    0.0000 C   0  0  0  0  0  0  0  0  0  0  0  0
    6.4917   -4.8167    0.0000 C   0  0  0  0  0  0  0  0  0  0  0  0
   -2.3583    0.4000    0.0000 C   0  0  0  0  0  0  0  0  0  0  0  0
  2  1  1  0
  3  2  2  0
  4  5  2  0
  5  1  1  0
  6 11  1  0
  7 14  1  0
  8  6  1  0
  9  8  2  0
 10  9  1  0
 11 22  1  0
 12  2  1  0
 13  1  1  0
 14 21  2  0
 15  6  2  0
 16 10  2  0
 17  7  1  0
 18  7  1  0
 19  7  1  0
 20 27  2  0
 21 28  1  0
 22 29  2  0
 23 13  1  0
 24 12  1  0
 25 10  1  0
 26 24  1  0
 27 26  1  0
 28 26  2  0
 29 32  1  0
 30 31  2  0
 31 23  1  0
 32 23  2  0
 33  5  1  0
 34  8  1  0
 35  9  1  0
 36 33  1  0
 37 36  1  0
 38 34  2  0
 39 38  1  0
 40 37  1  0
  3  4  1  0
 30 22  1  0
 20 14  1  0
 39 35  2  0
M  END
>  <From>  (1) 
www.bindingDB.org

>  <BindingDB Reactant_set_id>  (1) 
50034989

>  <Ligand InChI>  (1) 
InChI=1S/C29H27F3N4O3S/c1-2-3-8-25-34-35-28(40-18-20-9-13-21(14-10-20)29(30,31)32)36(25)17-19-11-15-22(16-12-19)33-26(37)23-6-4-5-7-24(23)27(38)39/h4-7,9-16H,2-3,8,17-18H2,1H3,(H,33,37)(H,38,39)

>  <Ligand InChI Key>  (1) 
SGEGBEUOBCQLKC-UHFFFAOYSA-N

>  <BindingDB MonomerID>  (1) 
50047866

>  <BindingDB Ligand Name>  (1) 
CHEMBL157185::N-{4-[3-Butyl-5-(4-trifluoromethyl-benzylsulfanyl)-[1,2,4]triazol-4-ylmethyl]-phenyl}-phthalamic acid

>  <Target Name>  (1) 
Type-1 angiotensin II receptor

>  <Target Source Organism According to Curator or DataSource>  (1) 
Oryctolagus cuniculus

>  <Ki (nM)>  (1) 


>  <IC50 (nM)>  (1) 
 42

>  <Kd (nM)>  (1) 


>  <EC50 (nM)>  (1) 


>  <kon (M-1-s-1)>  (1) 


>  <koff (s-1)>  (1) 


>  <pH>  (1) 


>  <Temp C>  (1) 


>  <Curation/DataSource>  (1) 
ChEMBL

>  <Article DOI>  (1) 
10.1021/jm00057a009

>  <BindingDB Entry DOI>  (1) 
10.7270/Q2P55MKH

>  <PMID>  (1) 
8496939

>  <PubChem AID>  (1) 


>  <Patent Number>  (1) 


>  <Authors>  (1) 
Ashton, WT; Cantone, CL; Chang, LL; Hutchins, SM; Strelitz, RA; MacCoss, M; Chang, RS; Lotti, VJ; Faust, KA; Chen, TB

>  <Institution>  (1) 
Merck Research Laboratories

>  <Link to Ligand in BindingDB>  (1) 
http://www.bindingdb.org/bind/chemsearch/marvin/MolStructure.jsp?monomerid=50047866

>  <Link to Ligand-Target Pair in BindingDB>  (1) 
http://www.bindingdb.org/jsp/dbsearch/PrimarySearch_ki.jsp?energyterm=kJ/mole&tag=r21&monomerid=50047866&enzyme=Type-1+angiotensin+II+receptor&column=ki&startPg=0&Increment=50&submit=Search

>  <Ligand HET ID in PDB>  (1) 


>  <PDB ID(s) for Ligand-Target Complex>  (1) 


>  <PubChem CID of Ligand>  (1) 
9985434

>  <PubChem SID of Ligand>  (1) 
103978430

>  <ChEBI ID of Ligand>  (1) 


>  <ChEMBL ID of Ligand>  (1) 
CHEMBL157185

>  <DrugBank ID of Ligand>  (1) 


>  <IUPHAR_GRAC ID of Ligand>  (1) 


>  <KEGG ID of Ligand>  (1) 
C06374

>  <ZINC ID of Ligand>  (1) 
ZINC27709546

>  <Number of Protein Chains in Target (bigger than 1 implies a multichain complex)>  (1) 
1

>  <BindingDB Target Chain Sequence>  (1) 
MMLNSSTEDGIKRIQDDCPKAGRHNYIFVMIPTLYSIIFVVGIFGNSLAVIVIYFYMKLKTVASVFLLNLALADLCFLLTLPLWAVYTAMEYRWPFGNYLCKIASASVSFNLYASVFLLTCLSIDRYLAIVHPMKSRLRRTMLVAKVTCIIIWLLAGLASLPAIIHRNVFFIENTNITVCAFHYESQNSTLPIGLGLTKNILGFLFPFLIILTSYTLIWKALKKAYEIQKNKPRNDDIFKIIMAIVLFFFFSWVPHQIFTFLDVLIQLGVIHDCRIADIVDTAMPITICIAYFNNCLNPLFYGFLGKKFKKYFLQLLKYIPPKAKSHSNLSTKMSTLSYRPSDNVSSSSKKPVPCFEVE

>  <PDB ID(s) of Target Chain>  (1) 
6DO1,6OS0,6OS1,6OS2

>  <UniProt (SwissProt) Recommended Name of Target Chain>  (1) 
Type-1 angiotensin II receptor

>  <UniProt (SwissProt) Entry Name of Target Chain>  (1) 
AGTR1_RABIT

>  <UniProt (SwissProt) Primary ID of Target Chain>  (1) 
P34976

>  <UniProt (SwissProt) Secondary ID(s) of Target Chain>  (1) 


>  <UniProt (SwissProt) Alternative ID(s) of Target Chain>  (1) 


>  <UniProt (TrEMBL) Submitted Name of Target Chain>  (1) 


>  <UniProt (TrEMBL) Entry Name of Target Chain>  (1) 


>  <UniProt (TrEMBL) Primary ID of Target Chain>  (1) 


>  <UniProt (TrEMBL) Secondary ID(s) of Target Chain>  (1) 


>  <UniProt (TrEMBL) Alternative ID(s) of Target Chain>  (1) 


$$$$
