
     RDKit          2D

 34 38  0  0  0  0  0  0  0  0999 V2000
    3.7745   -1.0940    0.0000 C   0  0  0  0  0  0  0  0  0  0  0  0
    4.1127   -0.3507    0.0000 N   0  0  0  0  0  0  0  0  0  0  0  0
    4.9394   -0.4384    0.0000 N   0  0  0  0  0  0  0  0  0  0  0  0
    2.3466   -0.2630    0.0000 C   0  0  0  0  0  0  0  0  0  0  0  0
    4.3966   -1.6534    0.0000 N   0  0  0  0  0  0  0  0  0  0  0  0
    1.6284    0.1503    0.0000 C   0  0  0  0  0  0  0  0  0  0  0  0
    5.1023   -1.2443    0.0000 N   0  0  0  0  0  0  0  0  0  0  0  0
    2.3466   -1.0940    0.0000 C   0  0  0  0  0  0  0  0  0  0  0  0
    3.0605   -1.5073    0.0000 C   0  0  0  0  0  0  0  0  0  0  0  0
    1.6326    5.1148    0.0000 N   0  0  0  0  0  0  0  0  0  0  0  0
    2.3466    3.8788    0.0000 C   0  0  0  0  0  0  0  0  0  0  0  0
    1.6326    3.4655    0.0000 C   0  0  0  0  0  0  0  0  0  0  0  0
    2.3466    4.7014    0.0000 C   0  0  0  0  0  0  0  0  0  0  0  0
    0.9061   -0.2673    0.0000 C   0  0  0  0  0  0  0  0  0  0  0  0
    0.9144    3.8788    0.0000 C   0  0  0  0  0  0  0  0  0  0  0  0
    3.0605    0.1503    0.0000 C   0  0  0  0  0  0  0  0  0  0  0  0
    0.9144    4.7014    0.0000 C   0  0  0  0  0  0  0  0  0  0  0  0
    1.6326    2.6388    0.0000 O   0  0  0  0  0  0  0  0  0  0  0  0
    1.6284    0.9853    0.0000 C   0  0  0  0  0  0  0  0  0  0  0  0
    0.9144   -1.0940    0.0000 O   0  0  0  0  0  0  0  0  0  0  0  0
    2.3466    1.3987    0.0000 C   0  0  0  0  0  0  0  0  0  0  0  0
    0.1921    0.1461    0.0000 O   0  0  0  0  0  0  0  0  0  0  0  0
    3.0605    0.9853    0.0000 C   0  0  0  0  0  0  0  0  0  0  0  0
    2.3466    2.2254    0.0000 C   0  0  0  0  0  0  0  0  0  0  0  0
    1.6284   -1.5073    0.0000 C   0  0  0  0  0  0  0  0  0  0  0  0
    3.0605    3.4655    0.0000 C   0  0  0  0  0  0  0  0  0  0  0  0
    3.0605   -2.3340    0.0000 C   0  0  0  0  0  0  0  0  0  0  0  0
    3.0605    5.1148    0.0000 C   0  0  0  0  0  0  0  0  0  0  0  0
    0.1921    5.1148    0.0000 C   0  0  0  0  0  0  0  0  0  0  0  0
    1.6284   -2.3340    0.0000 C   0  0  0  0  0  0  0  0  0  0  0  0
    3.7745    3.8788    0.0000 C   0  0  0  0  0  0  0  0  0  0  0  0
   -0.5219    4.7014    0.0000 C   0  0  0  0  0  0  0  0  0  0  0  0
    2.3466   -2.7474    0.0000 C   0  0  0  0  0  0  0  0  0  0  0  0
    3.7745    4.7014    0.0000 C   0  0  0  0  0  0  0  0  0  0  0  0
  2  1  1  0
  3  2  1  0
  4  8  1  0
  5  1  2  0
  6  4  2  0
  7  5  1  0
  8  9  1  0
  9  1  1  0
 10 17  2  0
 11 12  1  0
 12 18  1  0
 13 11  2  0
 14  6  1  0
 15 12  2  0
 16  4  1  0
 17 15  1  0
 18 24  1  0
 19  6  1  0
 20 14  2  0
 21 23  1  0
 22 14  1  0
 23 16  2  0
 24 21  1  0
 25  8  2  0
 26 11  1  0
 27  9  2  0
 28 13  1  0
 29 17  1  0
 30 33  2  0
 31 26  1  0
 32 29  1  0
 33 27  1  0
 34 31  1  0
  7  3  2  0
 30 25  1  0
 19 21  2  0
 10 13  1  0
 28 34  1  0
M  END
>  <From>  (1) 
www.bindingDB.org

>  <BindingDB Reactant_set_id>  (1) 
50003195

>  <Ligand InChI>  (1) 
InChI=1S/C26H25N5O3/c1-2-17-14-24(21-9-5-6-10-23(21)27-17)34-15-16-11-12-19(22(13-16)26(32)33)18-7-3-4-8-20(18)25-28-30-31-29-25/h3-4,7-8,11-14H,2,5-6,9-10,15H2,1H3,(H,32,33)(H,28,29,30,31)

>  <Ligand InChI Key>  (1) 
FCWOLXDDSTWLPN-UHFFFAOYSA-N

>  <BindingDB MonomerID>  (1) 
50283590

>  <BindingDB Ligand Name>  (1) 
4-(2-Ethyl-5,6,7,8-tetrahydro-quinolin-4-yloxymethyl)-2'-(2H-tetrazol-5-yl)-biphenyl-2-carboxylic acid::CHEMBL89846

>  <Target Name>  (1) 
Type-1 angiotensin II receptor

>  <Target Source Organism According to Curator or DataSource>  (1) 
Cavia porcellus

>  <Ki (nM)>  (1) 


>  <IC50 (nM)>  (1) 
 27

>  <Kd (nM)>  (1) 


>  <EC50 (nM)>  (1) 


>  <kon (M-1-s-1)>  (1) 


>  <koff (s-1)>  (1) 


>  <pH>  (1) 


>  <Temp C>  (1) 


>  <Curation/DataSource>  (1) 
ChEMBL

>  <Article DOI>  (1) 
10.1016/S0960-894X(01)80295-X

>  <BindingDB Entry DOI>  (1) 
10.7270/Q22J6BTX

>  <PMID>  (1) 


>  <PubChem AID>  (1) 


>  <Patent Number>  (1) 


>  <Authors>  (1) 
Thomas, AP; Roberts, DA; Thomason, DA

>  <Institution>  (1) 
TBA

>  <Link to Ligand in BindingDB>  (1) 
http://www.bindingdb.org/bind/chemsearch/marvin/MolStructure.jsp?monomerid=50283590

>  <Link to Ligand-Target Pair in BindingDB>  (1) 
http://www.bindingdb.org/jsp/dbsearch/PrimarySearch_ki.jsp?energyterm=kJ/mole&tag=r21&monomerid=50283590&enzyme=Type-1+angiotensin+II+receptor&column=ki&startPg=0&Increment=50&submit=Search

>  <Ligand HET ID in PDB>  (1) 


>  <PDB ID(s) for Ligand-Target Complex>  (1) 


>  <PubChem CID of Ligand>  (1) 
44322239

>  <PubChem SID of Ligand>  (1) 
104125247

>  <ChEBI ID of Ligand>  (1) 


>  <ChEMBL ID of Ligand>  (1) 
CHEMBL89846

>  <DrugBank ID of Ligand>  (1) 


>  <IUPHAR_GRAC ID of Ligand>  (1) 


>  <KEGG ID of Ligand>  (1) 


>  <ZINC ID of Ligand>  (1) 
ZINC26578081

>  <Number of Protein Chains in Target (bigger than 1 implies a multichain complex)>  (1) 
1

>  <BindingDB Target Chain Sequence>  (1) 
MILNSSTEDGIKRIQDDCPKAGRHSYIFVMIPTLYSIIFVVGIFGNSLVVIVIYFYMKLKTVASVFLLNLALADICFLLTLPLWAVYTAMEYRWPFGNYLCKIASASVSFNLYASVFLLTCLSIDRYLAIVHPMKSRLRRTMLVAKVTCVIIWLMAGLASLPAVIHRNVFFIENTNITVCAFHYESQNSTLPIGLGLTKNILGFMFPFLIILTSYTLIWKALKKAYEIQKNKPRNDDIFKIIMAIVLFFFFSWVPHQIFTFLDVLIQLGIIHDCKISDIVDTAMPITICIAYFNNCLNPLFYGFLGKKFKKYFLQLLKYIPPKAKSHSTLSTKMSTLSYRPSDNVSSSAKKPVQCFEVE

>  <PDB ID(s) of Target Chain>  (1) 
4ZUD

>  <UniProt (SwissProt) Recommended Name of Target Chain>  (1) 
Type-1 angiotensin II receptor

>  <UniProt (SwissProt) Entry Name of Target Chain>  (1) 
AGTR1_CAVPO

>  <UniProt (SwissProt) Primary ID of Target Chain>  (1) 
Q9WV26

>  <UniProt (SwissProt) Secondary ID(s) of Target Chain>  (1) 


>  <UniProt (SwissProt) Alternative ID(s) of Target Chain>  (1) 


>  <UniProt (TrEMBL) Submitted Name of Target Chain>  (1) 


>  <UniProt (TrEMBL) Entry Name of Target Chain>  (1) 


>  <UniProt (TrEMBL) Primary ID of Target Chain>  (1) 


>  <UniProt (TrEMBL) Secondary ID(s) of Target Chain>  (1) 


>  <UniProt (TrEMBL) Alternative ID(s) of Target Chain>  (1) 


$$$$
