
     RDKit          2D

 49 52  0  0  0  0  0  0  0  0999 V2000
    0.4750    0.2000    0.0000 N   0  0  0  0  0  0  0  0  0  0  0  0
    0.0667   -1.0667    0.0000 N   0  0  0  0  0  0  0  0  0  0  0  0
    0.7292   -0.5792    0.0000 C   0  0  0  0  0  0  0  0  0  0  0  0
    3.6292   -2.2875    0.0000 S   0  0  0  0  0  0  0  0  0  0  0  0
   -0.3500    0.1958    0.0000 N   0  0  0  0  0  0  0  0  0  0  0  0
    0.9542    0.8708    0.0000 C   0  0  0  0  0  0  0  0  0  0  0  0
   -0.6000   -0.5875    0.0000 C   0  0  0  0  0  0  0  0  0  0  0  0
    0.6167    1.6208    0.0000 C   0  0  0  0  0  0  0  0  0  0  0  0
    3.6250   -1.4625    0.0000 N   0  0  0  0  0  0  0  0  0  0  0  0
   -0.2083    1.6958    0.0000 C   0  0  0  0  0  0  0  0  0  0  0  0
    3.6375   -3.1125    0.0000 C   0  0  0  0  0  0  0  0  0  0  0  0
    4.3292   -1.0417    0.0000 C   0  0  0  0  0  0  0  0  0  0  0  0
    2.9292   -3.5250    0.0000 C   0  0  0  0  0  0  0  0  0  0  0  0
    1.7792    0.7833    0.0000 C   0  0  0  0  0  0  0  0  0  0  0  0
    0.0667   -1.8917    0.0000 C   0  0  0  0  0  0  0  0  0  0  0  0
    4.4542   -2.2792    0.0000 O   0  0  0  0  0  0  0  0  0  0  0  0
    2.8042   -2.2917    0.0000 O   0  0  0  0  0  0  0  0  0  0  0  0
    1.0917    2.2875    0.0000 C   0  0  0  0  0  0  0  0  0  0  0  0
    1.5167   -0.8292    0.0000 O   0  0  0  0  0  0  0  0  0  0  0  0
    3.5625    2.0458    0.0000 C   0  0  0  0  0  0  0  0  0  0  0  0
    3.0792    1.3750    0.0000 N   0  0  0  0  0  0  0  0  0  0  0  0
    2.2167   -3.1167    0.0000 C   0  0  0  0  0  0  0  0  0  0  0  0
    5.0500   -1.4542    0.0000 O   0  0  0  0  0  0  0  0  0  0  0  0
    2.2542    1.4583    0.0000 C   0  0  0  0  0  0  0  0  0  0  0  0
    4.3292   -0.2167    0.0000 O   0  0  0  0  0  0  0  0  0  0  0  0
    3.2250    2.7958    0.0000 O   0  0  0  0  0  0  0  0  0  0  0  0
   -1.0333    1.6958    0.0000 F   0  0  0  0  0  0  0  0  0  0  0  0
   -0.1625    2.5208    0.0000 F   0  0  0  0  0  0  0  0  0  0  0  0
   -0.2458    0.8708    0.0000 F   0  0  0  0  0  0  0  0  0  0  0  0
    5.7625   -1.0375    0.0000 C   0  0  0  0  0  0  0  0  0  0  0  0
    2.2042   -2.2917    0.0000 C   0  0  0  0  0  0  0  0  0  0  0  0
    1.5042   -3.5375    0.0000 C   0  0  0  0  0  0  0  0  0  0  0  0
    1.9167    2.2083    0.0000 C   0  0  0  0  0  0  0  0  0  0  0  0
    0.7875   -2.3042    0.0000 C   0  0  0  0  0  0  0  0  0  0  0  0
   -1.3833   -0.8417    0.0000 C   0  0  0  0  0  0  0  0  0  0  0  0
    1.4917   -1.8875    0.0000 C   0  0  0  0  0  0  0  0  0  0  0  0
    0.7875   -3.1292    0.0000 C   0  0  0  0  0  0  0  0  0  0  0  0
    4.3542   -3.5167    0.0000 C   0  0  0  0  0  0  0  0  0  0  0  0
    2.9292   -4.3542    0.0000 C   0  0  0  0  0  0  0  0  0  0  0  0
    4.3792    1.9625    0.0000 C   0  0  0  0  0  0  0  0  0  0  0  0
    5.3500   -0.3250    0.0000 C   0  0  0  0  0  0  0  0  0  0  0  0
    6.4750   -0.6167    0.0000 C   0  0  0  0  0  0  0  0  0  0  0  0
    6.1792   -1.7500    0.0000 C   0  0  0  0  0  0  0  0  0  0  0  0
   -2.0000   -0.2917    0.0000 C   0  0  0  0  0  0  0  0  0  0  0  0
   -2.7833   -0.5542    0.0000 C   0  0  0  0  0  0  0  0  0  0  0  0
    4.7167    1.2083    0.0000 C   0  0  0  0  0  0  0  0  0  0  0  0
    3.6500   -4.7625    0.0000 C   0  0  0  0  0  0  0  0  0  0  0  0
    4.3625   -4.3417    0.0000 C   0  0  0  0  0  0  0  0  0  0  0  0
   -3.3958   -0.0042    0.0000 C   0  0  0  0  0  0  0  0  0  0  0  0
  2  3  1  0
  3  1  1  0
  4 11  1  0
  5  1  1  0
  6  1  1  0
  7  5  2  0
  8  6  2  0
  9  4  1  0
 10  8  1  0
 11 13  2  0
 12  9  1  0
 13 22  1  0
 14  6  1  0
 15  2  1  0
 16  4  2  0
 17  4  2  0
 18  8  1  0
 19  3  2  0
 20 21  1  0
 21 24  1  0
 22 32  2  0
 23 12  1  0
 24 14  2  0
 25 12  2  0
 26 20  2  0
 27 10  1  0
 28 10  1  0
 29 10  1  0
 30 23  1  0
 31 36  2  0
 32 37  1  0
 33 24  1  0
 34 15  1  0
 35  7  1  0
 36 34  1  0
 37 34  2  0
 38 11  1  0
 39 13  1  0
 40 20  1  0
 41 30  1  0
 42 30  1  0
 43 30  1  0
 44 35  1  0
 45 44  1  0
 46 40  1  0
 47 39  2  0
 48 47  1  0
 49 45  1  0
  2  7  1  0
 33 18  2  0
 22 31  1  0
 38 48  2  0
M  END
>  <From>  (1) 
www.bindingDB.org

>  <BindingDB Reactant_set_id>  (1) 
50040464

>  <Ligand InChI>  (1) 
InChI=1S/C34H38F3N5O6S/c1-6-8-13-29-39-42(27-20-24(38-30(43)7-2)18-19-26(27)34(35,36)37)32(45)41(29)21-22-14-16-23(17-15-22)25-11-9-10-12-28(25)49(46,47)40-31(44)48-33(3,4)5/h9-12,14-20H,6-8,13,21H2,1-5H3,(H,38,43)(H,40,44)

>  <Ligand InChI Key>  (1) 
HQYHXZJKRHOYFK-UHFFFAOYSA-N

>  <BindingDB MonomerID>  (1) 
50030719

>  <BindingDB Ligand Name>  (1) 
4-[[2'-[N-(tert-Butoxycarbonyl)sulfamoyl]biphenyl-4-yl]methyl]-5-n-butyl-2,4-dihydro-2-[5-(propionylamino)-2-(trifluoromethyl)phenyl]-3H-1,2,4-trizol-3-one::CHEMBL276674::N-{3-[3-Butyl-5-oxo-4-(2'-(N-t-butyloxycarbonyl)-Sulfanamido-biphenyl-4-ylmethyl)-4,5-dihydro-[1,2,4]triazol-1-yl]-4-trifluoromethyl-phenyl}-propionamide::N-{3-[3-Butyl-5-oxo-4-(2'-(tert-butyloxycarbonyl)sulfamoyl-biphenyl-4-ylmethyl)-4,5-dihydro-[1,2,4]triazol-1-yl]-4-trifluoromethyl-phenyl}-propionamide

>  <Target Name>  (1) 
Type-1 angiotensin II receptor

>  <Target Source Organism According to Curator or DataSource>  (1) 
Oryctolagus cuniculus

>  <Ki (nM)>  (1) 


>  <IC50 (nM)>  (1) 
 0.290000

>  <Kd (nM)>  (1) 


>  <EC50 (nM)>  (1) 


>  <kon (M-1-s-1)>  (1) 


>  <koff (s-1)>  (1) 


>  <pH>  (1) 


>  <Temp C>  (1) 


>  <Curation/DataSource>  (1) 
ChEMBL

>  <Article DOI>  (1) 
10.1021/jm00019a004

>  <BindingDB Entry DOI>  (1) 
10.7270/Q2Q81C35

>  <PMID>  (1) 
7562905

>  <PubChem AID>  (1) 


>  <Patent Number>  (1) 


>  <Authors>  (1) 
Chang, LL; Ashton, WT; Flanagan, KL; Chen, TB; O'Malley, SS; Zingaro, GJ; Kivlighn, SD; Siegl, PK; Lotti, VJ; Chang, RS

>  <Institution>  (1) 
Merck Research Laboratories

>  <Link to Ligand in BindingDB>  (1) 
http://www.bindingdb.org/bind/chemsearch/marvin/MolStructure.jsp?monomerid=50030719

>  <Link to Ligand-Target Pair in BindingDB>  (1) 
http://www.bindingdb.org/jsp/dbsearch/PrimarySearch_ki.jsp?energyterm=kJ/mole&tag=r21&monomerid=50030719&enzyme=Type-1+angiotensin+II+receptor&column=ki&startPg=0&Increment=50&submit=Search

>  <Ligand HET ID in PDB>  (1) 


>  <PDB ID(s) for Ligand-Target Complex>  (1) 


>  <PubChem CID of Ligand>  (1) 
9810305

>  <PubChem SID of Ligand>  (1) 
103939567

>  <ChEBI ID of Ligand>  (1) 


>  <ChEMBL ID of Ligand>  (1) 
CHEMBL276674

>  <DrugBank ID of Ligand>  (1) 


>  <IUPHAR_GRAC ID of Ligand>  (1) 


>  <KEGG ID of Ligand>  (1) 


>  <ZINC ID of Ligand>  (1) 
ZINC03981033

>  <Number of Protein Chains in Target (bigger than 1 implies a multichain complex)>  (1) 
1

>  <BindingDB Target Chain Sequence>  (1) 
MMLNSSTEDGIKRIQDDCPKAGRHNYIFVMIPTLYSIIFVVGIFGNSLAVIVIYFYMKLKTVASVFLLNLALADLCFLLTLPLWAVYTAMEYRWPFGNYLCKIASASVSFNLYASVFLLTCLSIDRYLAIVHPMKSRLRRTMLVAKVTCIIIWLLAGLASLPAIIHRNVFFIENTNITVCAFHYESQNSTLPIGLGLTKNILGFLFPFLIILTSYTLIWKALKKAYEIQKNKPRNDDIFKIIMAIVLFFFFSWVPHQIFTFLDVLIQLGVIHDCRIADIVDTAMPITICIAYFNNCLNPLFYGFLGKKFKKYFLQLLKYIPPKAKSHSNLSTKMSTLSYRPSDNVSSSSKKPVPCFEVE

>  <PDB ID(s) of Target Chain>  (1) 
6DO1,6OS0,6OS1,6OS2

>  <UniProt (SwissProt) Recommended Name of Target Chain>  (1) 
Type-1 angiotensin II receptor

>  <UniProt (SwissProt) Entry Name of Target Chain>  (1) 
AGTR1_RABIT

>  <UniProt (SwissProt) Primary ID of Target Chain>  (1) 
P34976

>  <UniProt (SwissProt) Secondary ID(s) of Target Chain>  (1) 


>  <UniProt (SwissProt) Alternative ID(s) of Target Chain>  (1) 


>  <UniProt (TrEMBL) Submitted Name of Target Chain>  (1) 


>  <UniProt (TrEMBL) Entry Name of Target Chain>  (1) 


>  <UniProt (TrEMBL) Primary ID of Target Chain>  (1) 


>  <UniProt (TrEMBL) Secondary ID(s) of Target Chain>  (1) 


>  <UniProt (TrEMBL) Alternative ID(s) of Target Chain>  (1) 


$$$$
