
     RDKit          2D

 39 44  0  0  0  0  0  0  0  0999 V2000
   -1.2650   -1.4826    0.0000 S   0  0  0  0  0  0  0  0  0  0  0  0
    2.3584   -1.9119    0.0000 N   0  0  0  0  0  0  0  0  0  0  0  0
    2.4271   -0.5725    0.0000 N   0  0  0  0  0  0  0  0  0  0  0  0
   -0.5609   -1.9291    0.0000 N   0  0  0  0  0  0  0  0  0  0  0  0
    2.8736   -1.2708    0.0000 C   0  0  0  0  0  0  0  0  0  0  0  0
    1.5856   -1.6200    0.0000 C   0  0  0  0  0  0  0  0  0  0  0  0
    5.9131   -3.1484    0.0000 C   0  0  0  0  0  0  0  0  0  0  0  0
    5.4952   -1.8948    0.0000 N   0  0  0  0  0  0  0  0  0  0  0  0
    5.2434   -2.6675    0.0000 N   0  0  0  0  0  0  0  0  0  0  0  0
    6.3081   -1.8776    0.0000 N   0  0  0  0  0  0  0  0  0  0  0  0
    1.6314   -0.7957    0.0000 C   0  0  0  0  0  0  0  0  0  0  0  0
    0.8586   -1.9978    0.0000 C   0  0  0  0  0  0  0  0  0  0  0  0
    6.5771   -2.6675    0.0000 N   0  0  0  0  0  0  0  0  0  0  0  0
    0.1717   -1.5513    0.0000 C   0  0  0  0  0  0  0  0  0  0  0  0
    5.9245   -3.9726    0.0000 C   0  0  0  0  0  0  0  0  0  0  0  0
    5.2091   -4.3848    0.0000 C   0  0  0  0  0  0  0  0  0  0  0  0
   -1.9748   -1.0705    0.0000 O   0  0  0  0  0  0  0  0  0  0  0  0
   -0.5495   -1.0705    0.0000 O   0  0  0  0  0  0  0  0  0  0  0  0
    2.3584   -2.7362    0.0000 C   0  0  0  0  0  0  0  0  0  0  0  0
    4.4992   -3.9726    0.0000 C   0  0  0  0  0  0  0  0  0  0  0  0
    0.9331   -0.3492    0.0000 C   0  0  0  0  0  0  0  0  0  0  0  0
    0.2061   -0.7270    0.0000 C   0  0  0  0  0  0  0  0  0  0  0  0
   -1.9920   -1.8604    0.0000 C   0  0  0  0  0  0  0  0  0  0  0  0
    4.4992   -3.1484    0.0000 C   0  0  0  0  0  0  0  0  0  0  0  0
    3.7837   -4.3848    0.0000 C   0  0  0  0  0  0  0  0  0  0  0  0
    3.0739   -3.1484    0.0000 C   0  0  0  0  0  0  0  0  0  0  0  0
   -0.6010   -2.7534    0.0000 C   0  0  0  0  0  0  0  0  0  0  0  0
    3.6979   -1.3109    0.0000 C   0  0  0  0  0  0  0  0  0  0  0  0
    3.7837   -2.7362    0.0000 C   0  0  0  0  0  0  0  0  0  0  0  0
    3.0739   -3.9726    0.0000 C   0  0  0  0  0  0  0  0  0  0  0  0
    6.6344   -4.3790    0.0000 C   0  0  0  0  0  0  0  0  0  0  0  0
    5.2091   -5.2091    0.0000 C   0  0  0  0  0  0  0  0  0  0  0  0
    4.1444   -0.6182    0.0000 C   0  0  0  0  0  0  0  0  0  0  0  0
   -2.0378   -2.6847    0.0000 C   0  0  0  0  0  0  0  0  0  0  0  0
    4.9687   -0.6583    0.0000 C   0  0  0  0  0  0  0  0  0  0  0  0
   -1.3395   -3.1312    0.0000 C   0  0  0  0  0  0  0  0  0  0  0  0
    6.6458   -5.2091    0.0000 C   0  0  0  0  0  0  0  0  0  0  0  0
    5.9303   -5.6212    0.0000 C   0  0  0  0  0  0  0  0  0  0  0  0
    5.4151    0.0343    0.0000 C   0  0  0  0  0  0  0  0  0  0  0  0
  2  6  1  0
  3 11  1  0
  4  1  1  0
  5  2  1  0
  6 12  2  0
  7 15  1  0
  8  9  1  0
  9  7  1  0
 10 13  1  0
 11 21  2  0
 12 14  1  0
 13  7  2  0
 14  4  1  0
 15 16  1  0
 16 20  1  0
 17  1  2  0
 18  1  2  0
 19  2  1  0
 20 25  2  0
 21 22  1  0
 22 14  2  0
 23  1  1  0
 24 29  2  0
 25 30  1  0
 26 19  1  0
 27  4  1  0
 28  5  1  0
 29 26  1  0
 30 26  2  0
 31 15  2  0
 32 16  2  0
 33 28  1  0
 34 23  1  0
 35 33  1  0
 36 34  1  0
 37 38  2  0
 38 32  1  0
 39 35  1  0
 27 36  1  0
 11  6  1  0
  3  5  2  0
 20 24  1  0
 37 31  1  0
  8 10  2  0
M  END
>  <From>  (1) 
www.bindingDB.org

>  <BindingDB Reactant_set_id>  (1) 
50069228

>  <Ligand InChI>  (1) 
InChI=1S/C29H31N7O2S/c1-2-3-10-28-30-26-16-15-23(36-17-6-7-18-39(36,37)38)19-27(26)35(28)20-21-11-13-22(14-12-21)24-8-4-5-9-25(24)29-31-33-34-32-29/h4-5,8-9,11-16,19H,2-3,6-7,10,17-18,20H2,1H3,(H,31,32,33,34)

>  <Ligand InChI Key>  (1) 
SQVLPIKGPBGVCG-UHFFFAOYSA-N

>  <BindingDB MonomerID>  (1) 
50043260

>  <BindingDB Ligand Name>  (1) 
2-Butyl-6-(1,1-dioxo-1lambda*6*-[1,2]thiazinan-2-yl)-1-[2'-(1H-tetrazol-5-yl)-biphenyl-4-ylmethyl]-1H-benzoimidazole::CHEMBL130095

>  <Target Name>  (1) 
Type-1 angiotensin II receptor B

>  <Target Source Organism According to Curator or DataSource>  (1) 
Rattus

>  <Ki (nM)>  (1) 


>  <IC50 (nM)>  (1) 
 3

>  <Kd (nM)>  (1) 


>  <EC50 (nM)>  (1) 


>  <kon (M-1-s-1)>  (1) 


>  <koff (s-1)>  (1) 


>  <pH>  (1) 


>  <Temp C>  (1) 


>  <Curation/DataSource>  (1) 
ChEMBL

>  <Article DOI>  (1) 
10.1021/jm00077a007

>  <BindingDB Entry DOI>  (1) 
10.7270/Q2V98746

>  <PMID>  (1) 
8258826

>  <PubChem AID>  (1) 


>  <Patent Number>  (1) 


>  <Authors>  (1) 
Ries, UJ; Mihm, G; Narr, B; Hasselbach, KM; Wittneben, H; Entzeroth, M; van Meel, JC; Wienen, W; Hauel, NH

>  <Institution>  (1) 
Dr. Karl Thomae GmbH

>  <Link to Ligand in BindingDB>  (1) 
http://www.bindingdb.org/bind/chemsearch/marvin/MolStructure.jsp?monomerid=50043260

>  <Link to Ligand-Target Pair in BindingDB>  (1) 
http://www.bindingdb.org/jsp/dbsearch/PrimarySearch_ki.jsp?energyterm=kJ/mole&tag=r21&monomerid=50043260&enzyme=Type-1+angiotensin+II+receptor+B&column=ki&startPg=0&Increment=50&submit=Search

>  <Ligand HET ID in PDB>  (1) 


>  <PDB ID(s) for Ligand-Target Complex>  (1) 


>  <PubChem CID of Ligand>  (1) 
10370090

>  <PubChem SID of Ligand>  (1) 
103974729

>  <ChEBI ID of Ligand>  (1) 


>  <ChEMBL ID of Ligand>  (1) 
CHEMBL130095

>  <DrugBank ID of Ligand>  (1) 


>  <IUPHAR_GRAC ID of Ligand>  (1) 


>  <KEGG ID of Ligand>  (1) 


>  <ZINC ID of Ligand>  (1) 
ZINC27330015

>  <Number of Protein Chains in Target (bigger than 1 implies a multichain complex)>  (1) 
1

>  <BindingDB Target Chain Sequence>  (1) 
MTLNSSTEDGIKRIQDDCPKAGRHNYIFVMIPTLYSIIFVVGIFGNSLVVIVIYFYMKLKTVASVFLLNLALADLCFLLTLPLWAVYTAMEYRWPFGNHLCKIASASVSFNLYASVFLLTCLSIDRYLAIVHPMKSRLRRTMLVAKVTCIIIWLMAGLASLPAVIYRNVYFIENTNITVCAFHYESQNSTLPIGLGLTKNILGFVFPFLIILTSYTLIWKALKKAYKIQKNTPRNDDIFRIIMAIVLFFFFSWVPHQIFTFLDVLIQLGIIRDCEIADIVDTAMPITICIAYFNNCLNPLFYGFLGKKFKKYFLQLLKYIPPTAKSHAGLSTKMSTLSYRPSDNMSSSAKKSASFFEVE

>  <PDB ID(s) of Target Chain>  (1) 


>  <UniProt (SwissProt) Recommended Name of Target Chain>  (1) 
Type-1 angiotensin II receptor B

>  <UniProt (SwissProt) Entry Name of Target Chain>  (1) 
AGTRB_RAT

>  <UniProt (SwissProt) Primary ID of Target Chain>  (1) 
P29089

>  <UniProt (SwissProt) Secondary ID(s) of Target Chain>  (1) 


>  <UniProt (SwissProt) Alternative ID(s) of Target Chain>  (1) 


>  <UniProt (TrEMBL) Submitted Name of Target Chain>  (1) 


>  <UniProt (TrEMBL) Entry Name of Target Chain>  (1) 


>  <UniProt (TrEMBL) Primary ID of Target Chain>  (1) 


>  <UniProt (TrEMBL) Secondary ID(s) of Target Chain>  (1) 


>  <UniProt (TrEMBL) Alternative ID(s) of Target Chain>  (1) 


$$$$
