
     RDKit          2D

 48 52  0  0  0  0  0  0  0  0999 V2000
    8.8042   -2.9667    0.0000 S   0  0  0  0  0  0  0  0  0  0  0  0
    4.5292   -2.9625    0.0000 N   0  0  0  0  0  0  0  0  0  0  0  0
    3.8042   -2.5417    0.0000 C   0  0  0  0  0  0  0  0  0  0  0  0
    3.0917   -2.9625    0.0000 C   0  0  0  0  0  0  0  0  0  0  0  0
    4.5292   -3.7917    0.0000 C   0  0  0  0  0  0  0  0  0  0  0  0
    3.8042   -4.2042    0.0000 N   0  0  0  0  0  0  0  0  0  0  0  0
    8.8000   -2.1417    0.0000 N   0  0  0  0  0  0  0  0  0  0  0  0
    3.0875   -3.7917    0.0000 C   0  0  0  0  0  0  0  0  0  0  0  0
    8.8042   -3.7917    0.0000 C   0  0  0  0  0  0  0  0  0  0  0  0
    0.2292   -2.9667    0.0000 C   0  0  0  0  0  0  0  0  0  0  0  0
    9.5167   -1.7292    0.0000 C   0  0  0  0  0  0  0  0  0  0  0  0
    8.0917   -4.2042    0.0000 C   0  0  0  0  0  0  0  0  0  0  0  0
    0.9500   -2.5542    0.0000 N   0  0  0  0  0  0  0  0  0  0  0  0
    9.6292   -2.9667    0.0000 O   0  0  0  0  0  0  0  0  0  0  0  0
    7.9792   -2.9667    0.0000 O   0  0  0  0  0  0  0  0  0  0  0  0
    5.2417   -2.5542    0.0000 C   0  0  0  0  0  0  0  0  0  0  0  0
    2.3750   -2.5500    0.0000 C   0  0  0  0  0  0  0  0  0  0  0  0
    3.8042   -1.7167    0.0000 O   0  0  0  0  0  0  0  0  0  0  0  0
    7.3792   -3.7917    0.0000 C   0  0  0  0  0  0  0  0  0  0  0  0
    1.6625   -2.9625    0.0000 C   0  0  0  0  0  0  0  0  0  0  0  0
    0.2292   -3.7917    0.0000 O   0  0  0  0  0  0  0  0  0  0  0  0
   10.2292   -2.1417    0.0000 O   0  0  0  0  0  0  0  0  0  0  0  0
   -0.4833   -2.5542    0.0000 C   0  0  0  0  0  0  0  0  0  0  0  0
    2.3750   -4.2042    0.0000 C   0  0  0  0  0  0  0  0  0  0  0  0
    6.6625   -4.2042    0.0000 C   0  0  0  0  0  0  0  0  0  0  0  0
    7.3792   -2.9667    0.0000 C   0  0  0  0  0  0  0  0  0  0  0  0
    5.9542   -2.9667    0.0000 C   0  0  0  0  0  0  0  0  0  0  0  0
    9.5125   -0.9042    0.0000 O   0  0  0  0  0  0  0  0  0  0  0  0
    1.6625   -3.7917    0.0000 C   0  0  0  0  0  0  0  0  0  0  0  0
    5.2417   -4.2125    0.0000 C   0  0  0  0  0  0  0  0  0  0  0  0
    5.9500   -3.7917    0.0000 C   0  0  0  0  0  0  0  0  0  0  0  0
    6.6667   -2.5542    0.0000 C   0  0  0  0  0  0  0  0  0  0  0  0
    9.5167   -4.2042    0.0000 C   0  0  0  0  0  0  0  0  0  0  0  0
   10.2292   -0.4917    0.0000 C   0  0  0  0  0  0  0  0  0  0  0  0
    8.0917   -5.0292    0.0000 C   0  0  0  0  0  0  0  0  0  0  0  0
   -0.4750   -1.7250    0.0000 C   0  0  0  0  0  0  0  0  0  0  0  0
   -1.1875   -2.9667    0.0000 C   0  0  0  0  0  0  0  0  0  0  0  0
   10.2292    0.3333    0.0000 C   0  0  0  0  0  0  0  0  0  0  0  0
   10.9417    0.7458    0.0000 C   0  0  0  0  0  0  0  0  0  0  0  0
    5.2417   -5.0375    0.0000 C   0  0  0  0  0  0  0  0  0  0  0  0
    8.8042   -5.4417    0.0000 C   0  0  0  0  0  0  0  0  0  0  0  0
    9.5167   -5.0292    0.0000 C   0  0  0  0  0  0  0  0  0  0  0  0
   10.9417    1.5708    0.0000 C   0  0  0  0  0  0  0  0  0  0  0  0
   11.6542    0.3333    0.0000 C   0  0  0  0  0  0  0  0  0  0  0  0
    5.9542   -5.4500    0.0000 C   0  0  0  0  0  0  0  0  0  0  0  0
   -1.1958   -1.3167    0.0000 C   0  0  0  0  0  0  0  0  0  0  0  0
   -1.9083   -2.5542    0.0000 C   0  0  0  0  0  0  0  0  0  0  0  0
   -1.9083   -1.7292    0.0000 C   0  0  0  0  0  0  0  0  0  0  0  0
  2 16  1  0
  3  2  1  0
  4  3  1  0
  5  2  1  0
  6  5  2  0
  7  1  1  0
  8  6  1  0
  9  1  1  0
 10 13  1  0
 11  7  1  0
 12  9  2  0
 13 20  1  0
 14  1  2  0
 15  1  2  0
 16 27  1  0
 17  4  2  0
 18  3  2  0
 19 12  1  0
 20 17  1  0
 21 10  2  0
 22 11  2  0
 23 10  1  0
 24  8  2  0
 25 19  2  0
 26 19  1  0
 27 32  1  0
 28 11  1  0
 29 24  1  0
 30  5  1  0
 31 25  1  0
 32 26  2  0
 33  9  1  0
 34 28  1  0
 35 12  1  0
 36 23  2  0
 37 23  1  0
 38 34  1  0
 39 38  1  0
 40 30  1  0
 41 42  1  0
 42 33  2  0
 43 39  1  0
 44 39  1  0
 45 40  1  0
 46 36  1  0
 47 37  2  0
 48 47  1  0
 35 41  2  0
 27 31  2  0
  4  8  1  0
 20 29  2  0
 46 48  2  0
M  END
>  <From>  (1) 
www.bindingDB.org

>  <BindingDB Reactant_set_id>  (1) 
50002784

>  <Ligand InChI>  (1) 
InChI=1S/C37H38N4O6S/c1-4-10-34-39-32-20-19-29(38-35(42)28-11-6-5-7-12-28)23-31(32)36(43)41(34)24-26-15-17-27(18-16-26)30-13-8-9-14-33(30)48(45,46)40-37(44)47-22-21-25(2)3/h5-9,11-20,23,25H,4,10,21-22,24H2,1-3H3,(H,38,42)(H,40,44)

>  <Ligand InChI Key>  (1) 
CIHDNNQJOZYLEP-UHFFFAOYSA-N

>  <BindingDB MonomerID>  (1) 
50282469

>  <BindingDB Ligand Name>  (1) 
CHEMBL352502::Quinazolinone Analog

>  <Target Name>  (1) 
Type-1 angiotensin II receptor

>  <Target Source Organism According to Curator or DataSource>  (1) 
Oryctolagus cuniculus

>  <Ki (nM)>  (1) 


>  <IC50 (nM)>  (1) 
 0.350000

>  <Kd (nM)>  (1) 


>  <EC50 (nM)>  (1) 


>  <kon (M-1-s-1)>  (1) 


>  <koff (s-1)>  (1) 


>  <pH>  (1) 


>  <Temp C>  (1) 


>  <Curation/DataSource>  (1) 
ChEMBL

>  <Article DOI>  (1) 
10.1016/S0960-894X(01)81126-4

>  <BindingDB Entry DOI>  (1) 
10.7270/Q2D79BBS

>  <PMID>  (1) 


>  <PubChem AID>  (1) 


>  <Patent Number>  (1) 


>  <Authors>  (1) 
Glinka, TW; de Laszlo, SE; Siegl, PK; Chang, RS; Kivlighn, SD; Schorn, TS; Faust, KA; Chen, TB; Zingaro, GJ; Lotti, VJ; Greenlee, WJ

>  <Institution>  (1) 
TBA

>  <Link to Ligand in BindingDB>  (1) 
http://www.bindingdb.org/bind/chemsearch/marvin/MolStructure.jsp?monomerid=50282469

>  <Link to Ligand-Target Pair in BindingDB>  (1) 
http://www.bindingdb.org/jsp/dbsearch/PrimarySearch_ki.jsp?energyterm=kJ/mole&tag=r21&monomerid=50282469&enzyme=Type-1+angiotensin+II+receptor&column=ki&startPg=0&Increment=50&submit=Search

>  <Ligand HET ID in PDB>  (1) 


>  <PDB ID(s) for Ligand-Target Complex>  (1) 


>  <PubChem CID of Ligand>  (1) 
44381426

>  <PubChem SID of Ligand>  (1) 
104124143

>  <ChEBI ID of Ligand>  (1) 


>  <ChEMBL ID of Ligand>  (1) 
CHEMBL352502

>  <DrugBank ID of Ligand>  (1) 


>  <IUPHAR_GRAC ID of Ligand>  (1) 


>  <KEGG ID of Ligand>  (1) 


>  <ZINC ID of Ligand>  (1) 
ZINC27996789

>  <Number of Protein Chains in Target (bigger than 1 implies a multichain complex)>  (1) 
1

>  <BindingDB Target Chain Sequence>  (1) 
MMLNSSTEDGIKRIQDDCPKAGRHNYIFVMIPTLYSIIFVVGIFGNSLAVIVIYFYMKLKTVASVFLLNLALADLCFLLTLPLWAVYTAMEYRWPFGNYLCKIASASVSFNLYASVFLLTCLSIDRYLAIVHPMKSRLRRTMLVAKVTCIIIWLLAGLASLPAIIHRNVFFIENTNITVCAFHYESQNSTLPIGLGLTKNILGFLFPFLIILTSYTLIWKALKKAYEIQKNKPRNDDIFKIIMAIVLFFFFSWVPHQIFTFLDVLIQLGVIHDCRIADIVDTAMPITICIAYFNNCLNPLFYGFLGKKFKKYFLQLLKYIPPKAKSHSNLSTKMSTLSYRPSDNVSSSSKKPVPCFEVE

>  <PDB ID(s) of Target Chain>  (1) 
6DO1,6OS0,6OS1,6OS2

>  <UniProt (SwissProt) Recommended Name of Target Chain>  (1) 
Type-1 angiotensin II receptor

>  <UniProt (SwissProt) Entry Name of Target Chain>  (1) 
AGTR1_RABIT

>  <UniProt (SwissProt) Primary ID of Target Chain>  (1) 
P34976

>  <UniProt (SwissProt) Secondary ID(s) of Target Chain>  (1) 


>  <UniProt (SwissProt) Alternative ID(s) of Target Chain>  (1) 


>  <UniProt (TrEMBL) Submitted Name of Target Chain>  (1) 


>  <UniProt (TrEMBL) Entry Name of Target Chain>  (1) 


>  <UniProt (TrEMBL) Primary ID of Target Chain>  (1) 


>  <UniProt (TrEMBL) Secondary ID(s) of Target Chain>  (1) 


>  <UniProt (TrEMBL) Alternative ID(s) of Target Chain>  (1) 


$$$$
