
     RDKit          2D

 44 49  0  0  0  0  0  0  0  0999 V2000
   12.5049   -4.4871    0.0000 C   0  0  0  0  0  0  0  0  0  0  0  0
    8.1203   -4.4871    0.0000 N   0  0  0  0  0  0  0  0  0  0  0  0
    7.3817   -4.1029    0.0000 C   0  0  0  0  0  0  0  0  0  0  0  0
    6.6517   -4.4871    0.0000 C   0  0  0  0  0  0  0  0  0  0  0  0
   12.9404   -3.3301    0.0000 N   0  0  0  0  0  0  0  0  0  0  0  0
   11.8261   -4.0388    0.0000 N   0  0  0  0  0  0  0  0  0  0  0  0
   13.1966   -4.0473    0.0000 N   0  0  0  0  0  0  0  0  0  0  0  0
   12.0951   -3.3216    0.0000 N   0  0  0  0  0  0  0  0  0  0  0  0
    4.4572   -3.3344    0.0000 C   0  0  0  0  0  0  0  0  0  0  0  0
    7.3817   -5.6398    0.0000 N   0  0  0  0  0  0  0  0  0  0  0  0
   12.5049   -5.2556    0.0000 C   0  0  0  0  0  0  0  0  0  0  0  0
    8.1203   -5.2556    0.0000 C   0  0  0  0  0  0  0  0  0  0  0  0
    4.4572   -4.1029    0.0000 N   0  0  0  0  0  0  0  0  0  0  0  0
    5.9216   -4.1029    0.0000 C   0  0  0  0  0  0  0  0  0  0  0  0
    5.1916   -4.4871    0.0000 C   0  0  0  0  0  0  0  0  0  0  0  0
    6.6517   -5.2513    0.0000 C   0  0  0  0  0  0  0  0  0  0  0  0
   11.7749   -5.6398    0.0000 C   0  0  0  0  0  0  0  0  0  0  0  0
    8.8547   -4.1029    0.0000 C   0  0  0  0  0  0  0  0  0  0  0  0
   11.0448   -5.2556    0.0000 C   0  0  0  0  0  0  0  0  0  0  0  0
    7.3817   -3.3344    0.0000 O   0  0  0  0  0  0  0  0  0  0  0  0
    3.7186   -2.9587    0.0000 O   0  0  0  0  0  0  0  0  0  0  0  0
    5.1787   -2.8989    0.0000 C   0  0  0  0  0  0  0  0  0  0  0  0
    5.1916   -5.2556    0.0000 C   0  0  0  0  0  0  0  0  0  0  0  0
    5.9216   -5.6398    0.0000 C   0  0  0  0  0  0  0  0  0  0  0  0
   11.0448   -4.4871    0.0000 C   0  0  0  0  0  0  0  0  0  0  0  0
   10.3105   -5.6398    0.0000 C   0  0  0  0  0  0  0  0  0  0  0  0
    9.5847   -4.4871    0.0000 C   0  0  0  0  0  0  0  0  0  0  0  0
   11.0192   -4.2694    0.0000 C   0  0  0  0  0  0  0  0  0  0  0  0
    9.5804   -5.2556    0.0000 C   0  0  0  0  0  0  0  0  0  0  0  0
   10.3148   -4.1029    0.0000 C   0  0  0  0  0  0  0  0  0  0  0  0
    3.7186   -4.4828    0.0000 C   0  0  0  0  0  0  0  0  0  0  0  0
   13.2350   -5.6398    0.0000 C   0  0  0  0  0  0  0  0  0  0  0  0
   11.7749   -6.4083    0.0000 C   0  0  0  0  0  0  0  0  0  0  0  0
    2.2585   -4.4828    0.0000 O   0  0  0  0  0  0  0  0  0  0  0  0
    5.9173   -3.3088    0.0000 C   0  0  0  0  0  0  0  0  0  0  0  0
    5.1531   -2.0536    0.0000 C   0  0  0  0  0  0  0  0  0  0  0  0
    2.9886   -4.1029    0.0000 C   0  0  0  0  0  0  0  0  0  0  0  0
    1.5285   -4.1029    0.0000 C   0  0  0  0  0  0  0  0  0  0  0  0
   13.2350   -6.4083    0.0000 C   0  0  0  0  0  0  0  0  0  0  0  0
   12.5049   -6.7883    0.0000 C   0  0  0  0  0  0  0  0  0  0  0  0
    0.8112   -4.5512    0.0000 C   0  0  0  0  0  0  0  0  0  0  0  0
    6.6389   -2.8690    0.0000 C   0  0  0  0  0  0  0  0  0  0  0  0
    5.8704   -1.6181    0.0000 C   0  0  0  0  0  0  0  0  0  0  0  0
    6.6217   -2.0237    0.0000 C   0  0  0  0  0  0  0  0  0  0  0  0
  2 18  1  0
  3  2  1  0
  4  3  1  0
  5  7  1  0
  6  1  1  0
  7  1  2  0
  8  6  1  0
  9 13  1  0
 10 12  2  0
 11  1  1  0
 12  2  1  0
 13 15  1  0
 14  4  2  0
 15 14  1  0
 16 10  1  0
 17 11  1  0
 18 27  1  0
 19 17  1  0
 20  3  2  0
 21  9  2  0
 22  9  1  0
 23 24  1  0
 24 16  2  0
 25 19  2  0
 26 19  1  0
 27 29  1  0
 28  6  1  0
 29 26  2  0
 30 25  1  0
 31 13  1  0
 32 11  2  0
 33 17  2  0
 34 37  1  0
 35 22  2  0
 36 22  1  0
 37 31  1  0
 38 34  1  0
 39 32  1  0
 40 39  2  0
 41 38  1  0
 42 35  1  0
 43 36  2  0
 44 43  1  0
  5  8  2  0
 33 40  1  0
 30 27  2  0
  4 16  1  0
 15 23  2  0
 42 44  2  0
M  END
>  <From>  (1) 
www.bindingDB.org

>  <BindingDB Reactant_set_id>  (1) 
50003759

>  <Ligand InChI>  (1) 
InChI=1S/C34H31N7O3/c1-3-44-20-19-41(33(42)26-9-5-4-6-10-26)27-17-18-31-30(21-27)34(43)40(23-35-31)22-24-13-15-25(16-14-24)28-11-7-8-12-29(28)32-36-37-38-39(32)2/h4-18,21,23H,3,19-20,22H2,1-2H3

>  <Ligand InChI Key>  (1) 
PZNMFCMIKNBEDK-UHFFFAOYSA-N

>  <BindingDB MonomerID>  (1) 
50284651

>  <BindingDB Ligand Name>  (1) 
CHEMBL280908::N-(2-Ethoxy-ethyl)-N-{3-[2'-(1-methyl-1H-tetrazol-5-yl)-biphenyl-4-ylmethyl]-4-oxo-3,4-dihydro-quinazolin-6-yl}-benzamide

>  <Target Name>  (1) 
Type-1 angiotensin II receptor

>  <Target Source Organism According to Curator or DataSource>  (1) 
Oryctolagus cuniculus

>  <Ki (nM)>  (1) 


>  <IC50 (nM)>  (1) 
 1.6

>  <Kd (nM)>  (1) 


>  <EC50 (nM)>  (1) 


>  <kon (M-1-s-1)>  (1) 


>  <koff (s-1)>  (1) 


>  <pH>  (1) 


>  <Temp C>  (1) 


>  <Curation/DataSource>  (1) 
ChEMBL

>  <Article DOI>  (1) 
10.1016/0960-894X(95)00224-H

>  <BindingDB Entry DOI>  (1) 
10.7270/Q2086589

>  <PMID>  (1) 


>  <PubChem AID>  (1) 


>  <Patent Number>  (1) 


>  <Authors>  (1) 
de Laszlo, SE; Chang, RS; Chen, TB; Faust, KA; Greenlee, WJ; Kivlighn, SD; Lotti, VJ; O'Malley, SS; Schorn, TW; Schorn, TW; Siegl, PK; Tran, J; Zingaro, GJ

>  <Institution>  (1) 
TBA

>  <Link to Ligand in BindingDB>  (1) 
http://www.bindingdb.org/bind/chemsearch/marvin/MolStructure.jsp?monomerid=50284651

>  <Link to Ligand-Target Pair in BindingDB>  (1) 
http://www.bindingdb.org/jsp/dbsearch/PrimarySearch_ki.jsp?energyterm=kJ/mole&tag=r21&monomerid=50284651&enzyme=Type-1+angiotensin+II+receptor&column=ki&startPg=0&Increment=50&submit=Search

>  <Ligand HET ID in PDB>  (1) 


>  <PDB ID(s) for Ligand-Target Complex>  (1) 


>  <PubChem CID of Ligand>  (1) 
44277903

>  <PubChem SID of Ligand>  (1) 
104126222

>  <ChEBI ID of Ligand>  (1) 


>  <ChEMBL ID of Ligand>  (1) 
CHEMBL280908

>  <DrugBank ID of Ligand>  (1) 


>  <IUPHAR_GRAC ID of Ligand>  (1) 


>  <KEGG ID of Ligand>  (1) 


>  <ZINC ID of Ligand>  (1) 
ZINC28769505

>  <Number of Protein Chains in Target (bigger than 1 implies a multichain complex)>  (1) 
1

>  <BindingDB Target Chain Sequence>  (1) 
MMLNSSTEDGIKRIQDDCPKAGRHNYIFVMIPTLYSIIFVVGIFGNSLAVIVIYFYMKLKTVASVFLLNLALADLCFLLTLPLWAVYTAMEYRWPFGNYLCKIASASVSFNLYASVFLLTCLSIDRYLAIVHPMKSRLRRTMLVAKVTCIIIWLLAGLASLPAIIHRNVFFIENTNITVCAFHYESQNSTLPIGLGLTKNILGFLFPFLIILTSYTLIWKALKKAYEIQKNKPRNDDIFKIIMAIVLFFFFSWVPHQIFTFLDVLIQLGVIHDCRIADIVDTAMPITICIAYFNNCLNPLFYGFLGKKFKKYFLQLLKYIPPKAKSHSNLSTKMSTLSYRPSDNVSSSSKKPVPCFEVE

>  <PDB ID(s) of Target Chain>  (1) 
6DO1,6OS0,6OS1,6OS2

>  <UniProt (SwissProt) Recommended Name of Target Chain>  (1) 
Type-1 angiotensin II receptor

>  <UniProt (SwissProt) Entry Name of Target Chain>  (1) 
AGTR1_RABIT

>  <UniProt (SwissProt) Primary ID of Target Chain>  (1) 
P34976

>  <UniProt (SwissProt) Secondary ID(s) of Target Chain>  (1) 


>  <UniProt (SwissProt) Alternative ID(s) of Target Chain>  (1) 


>  <UniProt (TrEMBL) Submitted Name of Target Chain>  (1) 


>  <UniProt (TrEMBL) Entry Name of Target Chain>  (1) 


>  <UniProt (TrEMBL) Primary ID of Target Chain>  (1) 


>  <UniProt (TrEMBL) Secondary ID(s) of Target Chain>  (1) 


>  <UniProt (TrEMBL) Alternative ID(s) of Target Chain>  (1) 


$$$$
