
     RDKit          2D

 44 46  0  0  0  0  0  0  0  0999 V2000
    8.3542   -7.2667    0.0000 S   0  0  0  0  0  0  0  0  0  0  0  0
    4.7417   -6.2125    0.0000 N   0  0  0  0  0  0  0  0  0  0  0  0
    5.3792   -5.6917    0.0000 C   0  0  0  0  0  0  0  0  0  0  0  0
    5.0917   -4.9250    0.0000 C   0  0  0  0  0  0  0  0  0  0  0  0
    4.2667   -4.9667    0.0000 N   0  0  0  0  0  0  0  0  0  0  0  0
    4.0500   -5.7625    0.0000 C   0  0  0  0  0  0  0  0  0  0  0  0
    9.1792   -7.2792    0.0000 N   0  0  0  0  0  0  0  0  0  0  0  0
    8.4000   -8.0917    0.0000 C   0  0  0  0  0  0  0  0  0  0  0  0
    6.1792   -5.9125    0.0000 C   0  0  0  0  0  0  0  0  0  0  0  0
    5.5417   -4.2292    0.0000 C   0  0  0  0  0  0  0  0  0  0  0  0
    7.7042   -8.5417    0.0000 C   0  0  0  0  0  0  0  0  0  0  0  0
    5.1667   -3.5000    0.0000 N   0  0  0  0  0  0  0  0  0  0  0  0
    5.6250   -2.8042    0.0000 C   0  0  0  0  0  0  0  0  0  0  0  0
    9.6000   -6.5667    0.0000 C   0  0  0  0  0  0  0  0  0  0  0  0
    4.7792   -7.0375    0.0000 C   0  0  0  0  0  0  0  0  0  0  0  0
    8.3500   -6.4417    0.0000 O   0  0  0  0  0  0  0  0  0  0  0  0
    7.5292   -7.2667    0.0000 O   0  0  0  0  0  0  0  0  0  0  0  0
    6.9792   -8.1667    0.0000 C   0  0  0  0  0  0  0  0  0  0  0  0
    6.1750   -6.4625    0.0000 O   0  0  0  0  0  0  0  0  0  0  0  0
    6.4417   -2.8542    0.0000 O   0  0  0  0  0  0  0  0  0  0  0  0
    9.1917   -5.8500    0.0000 O   0  0  0  0  0  0  0  0  0  0  0  0
    6.2792   -8.6125    0.0000 C   0  0  0  0  0  0  0  0  0  0  0  0
    6.9375   -7.3375    0.0000 C   0  0  0  0  0  0  0  0  0  0  0  0
    5.5125   -7.4125    0.0000 C   0  0  0  0  0  0  0  0  0  0  0  0
    6.7667   -5.3292    0.0000 O   0  0  0  0  0  0  0  0  0  0  0  0
    3.2792   -6.0542    0.0000 C   0  0  0  0  0  0  0  0  0  0  0  0
    5.5500   -8.2375    0.0000 C   0  0  0  0  0  0  0  0  0  0  0  0
    6.2042   -6.9667    0.0000 C   0  0  0  0  0  0  0  0  0  0  0  0
    9.1292   -8.4667    0.0000 C   0  0  0  0  0  0  0  0  0  0  0  0
    7.7500   -9.3667    0.0000 C   0  0  0  0  0  0  0  0  0  0  0  0
    5.2542   -2.0667    0.0000 C   0  0  0  0  0  0  0  0  0  0  0  0
    4.3500   -3.4500    0.0000 C   0  0  0  0  0  0  0  0  0  0  0  0
   10.4250   -6.5750    0.0000 C   0  0  0  0  0  0  0  0  0  0  0  0
    2.6417   -5.5292    0.0000 C   0  0  0  0  0  0  0  0  0  0  0  0
    5.7042   -1.3792    0.0000 C   0  0  0  0  0  0  0  0  0  0  0  0
    3.9750   -2.7167    0.0000 C   0  0  0  0  0  0  0  0  0  0  0  0
   10.8417   -5.8625    0.0000 C   0  0  0  0  0  0  0  0  0  0  0  0
    3.1542   -2.6667    0.0000 C   0  0  0  0  0  0  0  0  0  0  0  0
    9.1750   -9.2917    0.0000 C   0  0  0  0  0  0  0  0  0  0  0  0
    8.4792   -9.7417    0.0000 C   0  0  0  0  0  0  0  0  0  0  0  0
    2.7792   -1.9292    0.0000 C   0  0  0  0  0  0  0  0  0  0  0  0
    1.8667   -5.8250    0.0000 C   0  0  0  0  0  0  0  0  0  0  0  0
    5.3292   -0.6500    0.0000 C   0  0  0  0  0  0  0  0  0  0  0  0
   11.6667   -5.8667    0.0000 C   0  0  0  0  0  0  0  0  0  0  0  0
  2 15  1  0
  3  2  1  0
  4  3  2  0
  5  6  2  0
  6  2  1  0
  7  1  1  0
  8  1  1  0
  9  3  1  0
 10  4  1  0
 11  8  2  0
 12 10  1  0
 13 12  1  0
 14  7  1  0
 15 24  1  0
 16  1  2  0
 17  1  2  0
 18 11  1  0
 19  9  2  0
 20 13  2  0
 21 14  2  0
 22 18  2  0
 23 18  1  0
 24 28  1  0
 25  9  1  0
 26  6  1  0
 27 22  1  0
 28 23  2  0
 29  8  1  0
 30 11  1  0
 31 13  1  0
 32 12  1  0
 33 14  1  0
 34 26  1  0
 35 31  1  0
 36 32  1  0
 37 33  1  0
 38 36  1  0
 39 29  2  0
 40 39  1  0
 41 38  1  0
 42 34  1  0
 43 35  1  0
 44 37  1  0
 40 30  2  0
 24 27  2  0
  5  4  1  0
M  END
>  <From>  (1) 
www.bindingDB.org

>  <BindingDB Reactant_set_id>  (1) 
50469008

>  <Ligand InChI>  (1) 
InChI=1S/C33H44N4O6S/c1-5-9-21-36(31(39)14-8-4)23-27-32(33(40)41)37(29(34-27)12-6-2)22-24-17-19-25(20-18-24)26-15-10-11-16-28(26)44(42,43)35-30(38)13-7-3/h10-11,15-20H,5-9,12-14,21-23H2,1-4H3,(H,35,38)(H,40,41)

>  <Ligand InChI Key>  (1) 
FURKQPPGTMILKC-UHFFFAOYSA-N

>  <BindingDB MonomerID>  (1) 
50283162

>  <BindingDB Ligand Name>  (1) 
5-[(Butyl-butyryl-amino)-methyl]-3-(2'-butyrylsulfamoyl-biphenyl-4-ylmethyl)-2-propyl-3H-imidazole-4-carboxylic acid::CHEMBL304620

>  <Target Name>  (1) 
Type-1 angiotensin II receptor

>  <Target Source Organism According to Curator or DataSource>  (1) 
Homo sapiens

>  <Ki (nM)>  (1) 


>  <IC50 (nM)>  (1) 
 2

>  <Kd (nM)>  (1) 


>  <EC50 (nM)>  (1) 


>  <kon (M-1-s-1)>  (1) 


>  <koff (s-1)>  (1) 


>  <pH>  (1) 


>  <Temp C>  (1) 


>  <Curation/DataSource>  (1) 
ChEMBL

>  <Article DOI>  (1) 
10.1016/S0960-894X(00)80076-1

>  <BindingDB Entry DOI>  (1) 
10.7270/Q2JQ110M

>  <PMID>  (1) 


>  <PubChem AID>  (1) 


>  <Patent Number>  (1) 


>  <Authors>  (1) 
Olson, RE; Liu, J; Lalka, GK; VanAtten, MK; Wexler, RR; Chiu, AT; Nguyen, TT; McCall, DE; Wong, PC; Timmermans, PB

>  <Institution>  (1) 
TBA

>  <Link to Ligand in BindingDB>  (1) 
http://www.bindingdb.org/bind/chemsearch/marvin/MolStructure.jsp?monomerid=50283162

>  <Link to Ligand-Target Pair in BindingDB>  (1) 
http://www.bindingdb.org/jsp/dbsearch/PrimarySearch_ki.jsp?energyterm=kJ/mole&tag=r21&monomerid=50283162&enzyme=Type-1+angiotensin+II+receptor&column=ki&startPg=0&Increment=50&submit=Search

>  <Ligand HET ID in PDB>  (1) 


>  <PDB ID(s) for Ligand-Target Complex>  (1) 


>  <PubChem CID of Ligand>  (1) 
44311662

>  <PubChem SID of Ligand>  (1) 
104124836

>  <ChEBI ID of Ligand>  (1) 


>  <ChEMBL ID of Ligand>  (1) 
CHEMBL304620

>  <DrugBank ID of Ligand>  (1) 


>  <IUPHAR_GRAC ID of Ligand>  (1) 


>  <KEGG ID of Ligand>  (1) 


>  <ZINC ID of Ligand>  (1) 
ZINC26295053

>  <Number of Protein Chains in Target (bigger than 1 implies a multichain complex)>  (1) 
1

>  <BindingDB Target Chain Sequence>  (1) 
MILNSSTEDGIKRIQDDCPKAGRHNYIFVMIPTLYSIIFVVGIFGNSLVVIVIYFYMKLKTVASVFLLNLALADLCFLLTLPLWAVYTAMEYRWPFGNYLCKIASASVSFNLYASVFLLTCLSIDRYLAIVHPMKSRLRRTMLVAKVTCIIIWLLAGLASLPAIIHRNVFFIENTNITVCAFHYESQNSTLPIGLGLTKNILGFLFPFLIILTSYTLIWKALKKAYEIQKNKPRNDDIFKIIMAIVLFFFFSWIPHQIFTFLDVLIQLGIIRDCRIADIVDTAMPITICIAYFNNCLNPLFYGFLGKKFKRYFLQLLKYIPPKAKSHSNLSTKMSTLSYRPSDNVSSSTKKPAPCFEVE

>  <PDB ID(s) of Target Chain>  (1) 
6DO1,6OS0,6OS1,6OS2

>  <UniProt (SwissProt) Recommended Name of Target Chain>  (1) 
Type-1 angiotensin II receptor

>  <UniProt (SwissProt) Entry Name of Target Chain>  (1) 
AGTR1_HUMAN

>  <UniProt (SwissProt) Primary ID of Target Chain>  (1) 
P30556

>  <UniProt (SwissProt) Secondary ID(s) of Target Chain>  (1) 
Q13725 Q8TBK4

>  <UniProt (SwissProt) Alternative ID(s) of Target Chain>  (1) 


>  <UniProt (TrEMBL) Submitted Name of Target Chain>  (1) 


>  <UniProt (TrEMBL) Entry Name of Target Chain>  (1) 


>  <UniProt (TrEMBL) Primary ID of Target Chain>  (1) 


>  <UniProt (TrEMBL) Secondary ID(s) of Target Chain>  (1) 


>  <UniProt (TrEMBL) Alternative ID(s) of Target Chain>  (1) 


$$$$
