
     RDKit          2D

 33 37  0  0  0  0  0  0  0  0999 V2000
   -4.6681  -10.7541    0.0000 C   0  0  0  0  0  0  0  0  0  0  0  0
   -4.6693  -11.5815    0.0000 C   0  0  0  0  0  0  0  0  0  0  0  0
   -3.9544  -11.9944    0.0000 C   0  0  0  0  0  0  0  0  0  0  0  0
   -3.9562  -10.3414    0.0000 C   0  0  0  0  0  0  0  0  0  0  0  0
   -3.2409  -10.7505    0.0000 C   0  0  0  0  0  0  0  0  0  0  0  0
   -3.2406  -11.5769    0.0000 C   0  0  0  0  0  0  0  0  0  0  0  0
   -2.4545  -11.8321    0.0000 N   0  0  0  0  0  0  0  0  0  0  0  0
   -1.9689  -11.1633    0.0000 C   0  0  0  0  0  0  0  0  0  0  0  0
   -2.4549  -10.4949    0.0000 N   0  0  0  0  0  0  0  0  0  0  0  0
   -3.9526  -12.8216    0.0000 C   0  0  0  0  0  0  0  0  0  0  0  0
   -4.6660  -13.2360    0.0000 O   0  0  0  0  0  0  0  0  0  0  0  0
   -3.2370  -13.2322    0.0000 O   0  0  0  0  0  0  0  0  0  0  0  0
   -2.1993  -12.6167    0.0000 C   0  0  0  0  0  0  0  0  0  0  0  0
   -1.3923  -12.7880    0.0000 C   0  0  0  0  0  0  0  0  0  0  0  0
   -1.1390  -13.5738    0.0000 C   0  0  0  0  0  0  0  0  0  0  0  0
   -0.3328  -13.7452    0.0000 C   0  0  0  0  0  0  0  0  0  0  0  0
    0.2200  -13.1316    0.0000 C   0  0  0  0  0  0  0  0  0  0  0  0
   -0.0390  -12.3438    0.0000 C   0  0  0  0  0  0  0  0  0  0  0  0
   -0.8446  -12.1761    0.0000 C   0  0  0  0  0  0  0  0  0  0  0  0
    1.0272  -13.3019    0.0000 N   0  0  0  0  0  0  0  0  0  0  0  0
    1.3648  -14.0519    0.0000 C   0  0  0  0  0  0  0  0  0  0  0  0
    2.1852  -13.9643    0.0000 C   0  0  0  0  0  0  0  0  0  0  0  0
    2.3554  -13.1570    0.0000 C   0  0  0  0  0  0  0  0  0  0  0  0
    1.6403  -12.7458    0.0000 C   0  0  0  0  0  0  0  0  0  0  0  0
    1.5530  -11.9299    0.0000 C   0  0  0  0  0  0  0  0  0  0  0  0
    2.1646  -11.3761    0.0000 N   0  0  0  0  0  0  0  0  0  0  0  0
    1.8269  -10.6234    0.0000 N   0  0  0  0  0  0  0  0  0  0  0  0
    1.0066  -10.7119    0.0000 N   0  0  0  0  0  0  0  0  0  0  0  0
    0.8374  -11.5193    0.0000 N   0  0  0  0  0  0  0  0  0  0  0  0
   -1.1439  -11.1630    0.0000 C   0  0  0  0  0  0  0  0  0  0  0  0
   -0.7316  -10.4484    0.0000 C   0  0  0  0  0  0  0  0  0  0  0  0
   -1.1444   -9.7341    0.0000 C   0  0  0  0  0  0  0  0  0  0  0  0
   -0.7322   -9.0194    0.0000 C   0  0  0  0  0  0  0  0  0  0  0  0
 15 16  2  0
  6  7  1  0
 16 17  1  0
  7  8  1  0
 17 18  2  0
  8  9  2  0
 18 19  1  0
 19 14  2  0
  9  5  1  0
 17 20  1  0
 20 21  1  0
  4  1  2  0
  5  6  2  0
 10 11  1  0
 21 22  2  0
 22 23  1  0
 23 24  2  0
 24 20  1  0
 25 26  1  0
 10 12  2  0
  3 10  1  0
  2  3  2  0
  7 13  1  0
  3  6  1  0
 26 27  1  0
 27 28  2  0
 28 29  1  0
 29 25  2  0
 24 25  1  0
 13 14  1  0
  8 30  1  0
  1  2  1  0
 30 31  1  0
 14 15  1  0
 31 32  1  0
  5  4  1  0
 32 33  1  0
M  END
>  <From>  (1) 
www.bindingDB.org

>  <BindingDB Reactant_set_id>  (1) 
50381240

>  <Ligand InChI>  (1) 
InChI=1S/C24H23N7O2/c1-2-3-9-21-25-19-7-4-6-18(24(32)33)22(19)31(21)15-16-10-12-17(13-11-16)30-14-5-8-20(30)23-26-28-29-27-23/h4-8,10-14H,2-3,9,15H2,1H3,(H,32,33)(H,26,27,28,29)

>  <Ligand InChI Key>  (1) 
ACUBPBCHAVPOHH-UHFFFAOYSA-N

>  <BindingDB MonomerID>  (1) 
50209823

>  <BindingDB Ligand Name>  (1) 
3-(4-(2-(1H-tetrazol-5-yl)-1H-pyrrol-1-yl)benzyl)-2-butyl-3H-benzo[d]imidazole-4-carboxylic acid::CHEMBL400424

>  <Target Name>  (1) 
Type-1 angiotensin II receptor

>  <Target Source Organism According to Curator or DataSource>  (1) 
Bos taurus

>  <Ki (nM)>  (1) 


>  <IC50 (nM)>  (1) 
 6.9

>  <Kd (nM)>  (1) 


>  <EC50 (nM)>  (1) 


>  <kon (M-1-s-1)>  (1) 


>  <koff (s-1)>  (1) 


>  <pH>  (1) 


>  <Temp C>  (1) 


>  <Curation/DataSource>  (1) 
ChEMBL

>  <Article DOI>  (1) 
10.1016/j.bmcl.2007.02.042

>  <BindingDB Entry DOI>  (1) 
10.7270/Q2C82908

>  <PMID>  (1) 
17412584

>  <PubChem AID>  (1) 


>  <Patent Number>  (1) 


>  <Authors>  (1) 
Xu, JY; Zeng, Y; Ran, Q; Wei, Z; Bi, Y; He, QH; Wang, QJ; Hu, S; Zhang, J; Tang, MY; Hua, WY; Wu, XM

>  <Institution>  (1) 
China Pharmaceutical University

>  <Link to Ligand in BindingDB>  (1) 
http://www.bindingdb.org/bind/chemsearch/marvin/MolStructure.jsp?monomerid=50209823

>  <Link to Ligand-Target Pair in BindingDB>  (1) 
http://www.bindingdb.org/jsp/dbsearch/PrimarySearch_ki.jsp?energyterm=kJ/mole&tag=r21&monomerid=50209823&enzyme=Type-1+angiotensin+II+receptor&column=ki&startPg=0&Increment=50&submit=Search

>  <Ligand HET ID in PDB>  (1) 


>  <PDB ID(s) for Ligand-Target Complex>  (1) 


>  <PubChem CID of Ligand>  (1) 
15224471

>  <PubChem SID of Ligand>  (1) 
104086511

>  <ChEBI ID of Ligand>  (1) 


>  <ChEMBL ID of Ligand>  (1) 
CHEMBL400424

>  <DrugBank ID of Ligand>  (1) 


>  <IUPHAR_GRAC ID of Ligand>  (1) 


>  <KEGG ID of Ligand>  (1) 


>  <ZINC ID of Ligand>  (1) 
ZINC01534850

>  <Number of Protein Chains in Target (bigger than 1 implies a multichain complex)>  (1) 
1

>  <BindingDB Target Chain Sequence>  (1) 
MILNSSTEDGIKRIQDDCPKAGRHNYIFIMIPTLYSIIFVVGIFGNSLVVIVIYFYMKLKTVASVFLLNLALADLCFLLTLPLWAVYTAMEYRWPFGNYLCKIASASVSFNLYASVFLLTCLSIDRYLAIVHPMKSRLRRTMLVAKVTCIIIWLLAGLASLPTIIHRNVFFIENTNITVCAFHYESQNSTLPVGLGLTKNILGFLFPFLIILTSYTLIWKTLKKAYEIQKNKPRKDDIFKIILAIVLFFFFSWVPHQIFTFMDVLIQLGLIRDCKIEDIVDTAMPITICLAYFNNCLNPLFYGFLGKKFKKYFLQLLKYIPPKAKSHSNLSTKMSTLSYRPSENGNSSTKKPAPCIEVE

>  <PDB ID(s) of Target Chain>  (1) 


>  <UniProt (SwissProt) Recommended Name of Target Chain>  (1) 
Type-1 angiotensin II receptor

>  <UniProt (SwissProt) Entry Name of Target Chain>  (1) 
AGTR1_BOVIN

>  <UniProt (SwissProt) Primary ID of Target Chain>  (1) 
P25104

>  <UniProt (SwissProt) Secondary ID(s) of Target Chain>  (1) 


>  <UniProt (SwissProt) Alternative ID(s) of Target Chain>  (1) 


>  <UniProt (TrEMBL) Submitted Name of Target Chain>  (1) 


>  <UniProt (TrEMBL) Entry Name of Target Chain>  (1) 


>  <UniProt (TrEMBL) Primary ID of Target Chain>  (1) 


>  <UniProt (TrEMBL) Secondary ID(s) of Target Chain>  (1) 


>  <UniProt (TrEMBL) Alternative ID(s) of Target Chain>  (1) 


$$$$
