
     RDKit          2D

 43 49  0  0  0  0  0  0  0  0999 V2000
    7.2205  -11.9234    0.0000 C   0  0  0  0  0  0  0  0  0  0  0  0
    7.9369  -11.5100    0.0000 N   0  0  0  0  0  0  0  0  0  0  0  0
    7.9340  -10.6796    0.0000 C   0  0  0  0  0  0  0  0  0  0  0  0
    7.2186  -10.2704    0.0000 C   0  0  0  0  0  0  0  0  0  0  0  0
    6.5057  -11.5105    0.0000 C   0  0  0  0  0  0  0  0  0  0  0  0
    6.5069  -10.6816    0.0000 C   0  0  0  0  0  0  0  0  0  0  0  0
    5.7190  -10.4243    0.0000 N   0  0  0  0  0  0  0  0  0  0  0  0
    5.2307  -11.0942    0.0000 C   0  0  0  0  0  0  0  0  0  0  0  0
    5.7170  -11.7654    0.0000 N   0  0  0  0  0  0  0  0  0  0  0  0
    4.4057  -11.0930    0.0000 C   0  0  0  0  0  0  0  0  0  0  0  0
    3.9943  -10.3779    0.0000 C   0  0  0  0  0  0  0  0  0  0  0  0
    5.4591  -12.5500    0.0000 C   0  0  0  0  0  0  0  0  0  0  0  0
    5.4573  -13.8849    0.0000 C   0  0  0  0  0  0  0  0  0  0  0  0
    5.9431  -13.2181    0.0000 C   0  0  0  0  0  0  0  0  0  0  0  0
    4.6730  -13.6288    0.0000 C   0  0  0  0  0  0  0  0  0  0  0  0
    4.6760  -12.8054    0.0000 C   0  0  0  0  0  0  0  0  0  0  0  0
    3.9656  -12.3928    0.0000 C   0  0  0  0  0  0  0  0  0  0  0  0
    3.2515  -12.8025    0.0000 C   0  0  0  0  0  0  0  0  0  0  0  0
    3.2526  -13.6292    0.0000 C   0  0  0  0  0  0  0  0  0  0  0  0
    3.9636  -14.0379    0.0000 C   0  0  0  0  0  0  0  0  0  0  0  0
    2.5389  -14.0446    0.0000 C   0  0  0  0  0  0  0  0  0  0  0  0
    1.8235  -13.6315    0.0000 C   0  0  0  0  0  0  0  0  0  0  0  0
    1.1102  -14.0443    0.0000 C   0  0  0  0  0  0  0  0  0  0  0  0
    1.1110  -14.8702    0.0000 C   0  0  0  0  0  0  0  0  0  0  0  0
    1.8311  -15.2815    0.0000 C   0  0  0  0  0  0  0  0  0  0  0  0
    2.5415  -14.8663    0.0000 C   0  0  0  0  0  0  0  0  0  0  0  0
    3.2586  -15.2762    0.0000 C   0  0  0  0  0  0  0  0  0  0  0  0
    3.3484  -16.0963    0.0000 N   0  0  0  0  0  0  0  0  0  0  0  0
    4.1561  -16.2645    0.0000 N   0  0  0  0  0  0  0  0  0  0  0  0
    4.5656  -15.5482    0.0000 N   0  0  0  0  0  0  0  0  0  0  0  0
    4.0109  -14.9375    0.0000 N   0  0  0  0  0  0  0  0  0  0  0  0
    7.2203  -12.7484    0.0000 O   0  0  0  0  0  0  0  0  0  0  0  0
    8.6520  -11.9214    0.0000 C   0  0  0  0  0  0  0  0  0  0  0  0
    8.6533  -12.7464    0.0000 C   0  0  0  0  0  0  0  0  0  0  0  0
    7.9382  -13.1585    0.0000 O   0  0  0  0  0  0  0  0  0  0  0  0
    9.3665  -13.1540    0.0000 O   0  0  0  0  0  0  0  0  0  0  0  0
    9.3702  -13.9790    0.0000 C   0  0  0  0  0  0  0  0  0  0  0  0
   10.0865  -14.3883    0.0000 C   0  0  0  0  0  0  0  0  0  0  0  0
   10.0883  -15.2134    0.0000 C   0  0  0  0  0  0  0  0  0  0  0  0
   10.8037  -15.6227    0.0000 C   0  0  0  0  0  0  0  0  0  0  0  0
   11.5173  -15.2070    0.0000 C   0  0  0  0  0  0  0  0  0  0  0  0
   11.5110  -14.3777    0.0000 C   0  0  0  0  0  0  0  0  0  0  0  0
   10.7950  -13.9722    0.0000 C   0  0  0  0  0  0  0  0  0  0  0  0
  5  1  1  0
  1  2  1  0
  2  3  1  0
  3  4  2  0
  4  6  1  0
  5  6  2  0
  6  7  1  0
  7  8  2  0
  8  9  1  0
  9  5  1  0
  8 10  1  0
 10 11  1  0
 12 16  1  0
 15 13  1  0
 13 14  1  0
 12 14  1  0
 12  9  1  1
 15 16  2  0
 16 17  1  0
 17 18  2  0
 18 19  1  0
 19 20  2  0
 20 15  1  0
 21 22  2  0
 22 23  1  0
 23 24  2  0
 24 25  1  0
 25 26  2  0
 26 21  1  0
 19 21  1  0
 27 28  1  0
 28 29  1  0
 29 30  2  0
 30 31  1  0
 31 27  2  0
 26 27  1  0
  1 32  2  0
  2 33  1  0
 33 34  1  0
 34 35  2  0
 36 34  1  0
 36 37  1  0
 37 38  1  0
 38 39  2  0
 39 40  1  0
 40 41  2  0
 41 42  1  0
 42 43  2  0
 43 38  1  0
M  END
>  <From>  (1) 
www.bindingDB.org

>  <BindingDB Reactant_set_id>  (1) 
51045847

>  <Ligand InChI>  (1) 
InChI=1S/C33H29N7O3/c1-2-29-34-27-16-17-39(19-30(41)43-20-21-8-4-3-5-9-21)33(42)31(27)40(29)28-15-13-23-18-22(12-14-25(23)28)24-10-6-7-11-26(24)32-35-37-38-36-32/h3-12,14,16-18,28H,2,13,15,19-20H2,1H3,(H,35,36,37,38)/t28-/m0/s1

>  <Ligand InChI Key>  (1) 
KTJFAFPWSZEFRR-NDEPHWFRSA-N

>  <BindingDB MonomerID>  (1) 
50426772

>  <BindingDB Ligand Name>  (1) 
CHEMBL2322439

>  <Target Name>  (1) 
Type-1 angiotensin II receptor

>  <Target Source Organism According to Curator or DataSource>  (1) 
Homo sapiens

>  <Ki (nM)>  (1) 


>  <IC50 (nM)>  (1) 
 20

>  <Kd (nM)>  (1) 


>  <EC50 (nM)>  (1) 


>  <kon (M-1-s-1)>  (1) 


>  <koff (s-1)>  (1) 


>  <pH>  (1) 


>  <Temp C>  (1) 


>  <Curation/DataSource>  (1) 
ChEMBL

>  <Article DOI>  (1) 
10.1016/j.bmcl.2012.11.088

>  <BindingDB Entry DOI>  (1) 
10.7270/Q2542PW7

>  <PMID>  (1) 
23265881

>  <PubChem AID>  (1) 


>  <Patent Number>  (1) 


>  <Authors>  (1) 
Casimiro-Garcia, A; Heemstra, RJ; Bigge, CF; Chen, J; Ciske, FA; Davis, JA; Ellis, T; Esmaeil, N; Flynn, D; Han, S; Jalaie, M; Ohren, JF; Powell, NA

>  <Institution>  (1) 
Pfizer Inc

>  <Link to Ligand in BindingDB>  (1) 
http://www.bindingdb.org/bind/chemsearch/marvin/MolStructure.jsp?monomerid=50426772

>  <Link to Ligand-Target Pair in BindingDB>  (1) 
http://www.bindingdb.org/jsp/dbsearch/PrimarySearch_ki.jsp?energyterm=kJ/mole&tag=r21&monomerid=50426772&enzyme=Type-1+angiotensin+II+receptor&column=ki&startPg=0&Increment=50&submit=Search

>  <Ligand HET ID in PDB>  (1) 


>  <PDB ID(s) for Ligand-Target Complex>  (1) 


>  <PubChem CID of Ligand>  (1) 
71521196

>  <PubChem SID of Ligand>  (1) 
164155647

>  <ChEBI ID of Ligand>  (1) 


>  <ChEMBL ID of Ligand>  (1) 
CHEMBL2322439

>  <DrugBank ID of Ligand>  (1) 


>  <IUPHAR_GRAC ID of Ligand>  (1) 


>  <KEGG ID of Ligand>  (1) 


>  <ZINC ID of Ligand>  (1) 
ZINC95581222

>  <Number of Protein Chains in Target (bigger than 1 implies a multichain complex)>  (1) 
1

>  <BindingDB Target Chain Sequence>  (1) 
MILNSSTEDGIKRIQDDCPKAGRHNYIFVMIPTLYSIIFVVGIFGNSLVVIVIYFYMKLKTVASVFLLNLALADLCFLLTLPLWAVYTAMEYRWPFGNYLCKIASASVSFNLYASVFLLTCLSIDRYLAIVHPMKSRLRRTMLVAKVTCIIIWLLAGLASLPAIIHRNVFFIENTNITVCAFHYESQNSTLPIGLGLTKNILGFLFPFLIILTSYTLIWKALKKAYEIQKNKPRNDDIFKIIMAIVLFFFFSWIPHQIFTFLDVLIQLGIIRDCRIADIVDTAMPITICIAYFNNCLNPLFYGFLGKKFKRYFLQLLKYIPPKAKSHSNLSTKMSTLSYRPSDNVSSSTKKPAPCFEVE

>  <PDB ID(s) of Target Chain>  (1) 
6DO1,6OS0,6OS1,6OS2

>  <UniProt (SwissProt) Recommended Name of Target Chain>  (1) 
Type-1 angiotensin II receptor

>  <UniProt (SwissProt) Entry Name of Target Chain>  (1) 
AGTR1_HUMAN

>  <UniProt (SwissProt) Primary ID of Target Chain>  (1) 
P30556

>  <UniProt (SwissProt) Secondary ID(s) of Target Chain>  (1) 
Q13725 Q8TBK4

>  <UniProt (SwissProt) Alternative ID(s) of Target Chain>  (1) 


>  <UniProt (TrEMBL) Submitted Name of Target Chain>  (1) 


>  <UniProt (TrEMBL) Entry Name of Target Chain>  (1) 


>  <UniProt (TrEMBL) Primary ID of Target Chain>  (1) 


>  <UniProt (TrEMBL) Secondary ID(s) of Target Chain>  (1) 


>  <UniProt (TrEMBL) Alternative ID(s) of Target Chain>  (1) 


$$$$
