
     RDKit          2D

 31 35  0  0  0  0  0  0  0  0999 V2000
    2.8875   -0.1542    0.0000 N   0  0  0  0  0  0  0  0  0  0  0  0
    2.8875    0.6625    0.0000 C   0  0  0  0  0  0  0  0  0  0  0  0
    2.1042   -0.4167    0.0000 C   0  0  0  0  0  0  0  0  0  0  0  0
    2.1042    0.9208    0.0000 N   0  0  0  0  0  0  0  0  0  0  0  0
    3.6000   -0.5750    0.0000 N   0  0  0  0  0  0  0  0  0  0  0  0
    1.6167    0.2500    0.0000 C   0  0  0  0  0  0  0  0  0  0  0  0
   -0.0333   -4.1292    0.0000 C   0  0  0  0  0  0  0  0  0  0  0  0
    0.0542   -4.9542    0.0000 N   0  0  0  0  0  0  0  0  0  0  0  0
    0.8625   -5.1250    0.0000 N   0  0  0  0  0  0  0  0  0  0  0  0
    3.6000    1.0833    0.0000 C   0  0  0  0  0  0  0  0  0  0  0  0
    0.7167   -3.7917    0.0000 N   0  0  0  0  0  0  0  0  0  0  0  0
    1.2750   -4.4042    0.0000 N   0  0  0  0  0  0  0  0  0  0  0  0
   -0.7500   -3.7250    0.0000 C   0  0  0  0  0  0  0  0  0  0  0  0
    4.3167    0.6708    0.0000 C   0  0  0  0  0  0  0  0  0  0  0  0
   -0.7500   -2.8917    0.0000 C   0  0  0  0  0  0  0  0  0  0  0  0
    4.3167   -0.1542    0.0000 C   0  0  0  0  0  0  0  0  0  0  0  0
    2.1000   -1.2375    0.0000 C   0  0  0  0  0  0  0  0  0  0  0  0
   -0.0458   -2.4792    0.0000 C   0  0  0  0  0  0  0  0  0  0  0  0
   -0.0458   -1.6542    0.0000 C   0  0  0  0  0  0  0  0  0  0  0  0
    0.6750   -2.8917    0.0000 C   0  0  0  0  0  0  0  0  0  0  0  0
    1.3792   -1.6500    0.0000 C   0  0  0  0  0  0  0  0  0  0  0  0
    0.7917    0.2583    0.0000 C   0  0  0  0  0  0  0  0  0  0  0  0
    0.6625   -1.2417    0.0000 C   0  0  0  0  0  0  0  0  0  0  0  0
    1.3875   -2.4792    0.0000 C   0  0  0  0  0  0  0  0  0  0  0  0
    3.5917    1.9083    0.0000 C   0  0  0  0  0  0  0  0  0  0  0  0
   -1.4708   -4.1292    0.0000 C   0  0  0  0  0  0  0  0  0  0  0  0
   -1.4708   -2.4792    0.0000 C   0  0  0  0  0  0  0  0  0  0  0  0
    5.0292   -0.5750    0.0000 C   0  0  0  0  0  0  0  0  0  0  0  0
    0.3792    0.9708    0.0000 C   0  0  0  0  0  0  0  0  0  0  0  0
   -2.1833   -3.7250    0.0000 C   0  0  0  0  0  0  0  0  0  0  0  0
   -2.1833   -2.8917    0.0000 C   0  0  0  0  0  0  0  0  0  0  0  0
  2  1  1  0
  3  1  1  0
  4  2  2  0
  5  1  1  0
  6  3  2  0
  7 13  1  0
  8  7  1  0
  9  8  1  0
 10  2  1  0
 11  7  2  0
 12 11  1  0
 13 15  1  0
 14 16  1  0
 15 18  1  0
 16  5  2  0
 17  3  1  0
 18 20  2  0
 19 23  2  0
 20 24  1  0
 21 17  1  0
 22  6  1  0
 23 21  1  0
 24 21  2  0
 25 10  1  0
 26 13  2  0
 27 15  2  0
 28 16  1  0
 29 22  1  0
 30 31  2  0
 31 27  1  0
  6  4  1  0
 10 14  2  0
 18 19  1  0
 26 30  1  0
 12  9  2  0
M  END
>  <From>  (1) 
www.bindingDB.org

>  <BindingDB Reactant_set_id>  (1) 
50002588

>  <Ligand InChI>  (1) 
InChI=1S/C24H23N7/c1-4-21-22(31-24(25-21)15(2)13-16(3)28-31)14-17-9-11-18(12-10-17)19-7-5-6-8-20(19)23-26-29-30-27-23/h5-13H,4,14H2,1-3H3,(H,26,27,29,30)

>  <Ligand InChI Key>  (1) 
OMOOGKDUWPGBMS-UHFFFAOYSA-N

>  <BindingDB MonomerID>  (1) 
50282360

>  <BindingDB Ligand Name>  (1) 
2-Ethyl-6,8-dimethyl-3-[2'-(2H-tetrazol-5-yl)-biphenyl-4-ylmethyl]-imidazo[1,2-b]pyridazine::CHEMBL67919

>  <Target Name>  (1) 
Type-1 angiotensin II receptor

>  <Target Source Organism According to Curator or DataSource>  (1) 
Oryctolagus cuniculus

>  <Ki (nM)>  (1) 


>  <IC50 (nM)>  (1) 
 5.7

>  <Kd (nM)>  (1) 


>  <EC50 (nM)>  (1) 


>  <kon (M-1-s-1)>  (1) 


>  <koff (s-1)>  (1) 


>  <pH>  (1) 


>  <Temp C>  (1) 


>  <Curation/DataSource>  (1) 
ChEMBL

>  <Article DOI>  (1) 
10.1016/S0960-894X(01)81150-1

>  <BindingDB Entry DOI>  (1) 
10.7270/Q2F76CHM

>  <PMID>  (1) 


>  <PubChem AID>  (1) 


>  <Patent Number>  (1) 


>  <Authors>  (1) 
Walsh, TF; Fitch, KJ; MacCoss, M; Chang, RS; Kivlighn, SD; Lotti, VJ; Siegl, PK; Patchett, AA; Greenlee, WJ

>  <Institution>  (1) 
TBA

>  <Link to Ligand in BindingDB>  (1) 
http://www.bindingdb.org/bind/chemsearch/marvin/MolStructure.jsp?monomerid=50282360

>  <Link to Ligand-Target Pair in BindingDB>  (1) 
http://www.bindingdb.org/jsp/dbsearch/PrimarySearch_ki.jsp?energyterm=kJ/mole&tag=r21&monomerid=50282360&enzyme=Type-1+angiotensin+II+receptor&column=ki&startPg=0&Increment=50&submit=Search

>  <Ligand HET ID in PDB>  (1) 


>  <PDB ID(s) for Ligand-Target Complex>  (1) 


>  <PubChem CID of Ligand>  (1) 
44310609

>  <PubChem SID of Ligand>  (1) 
104124034

>  <ChEBI ID of Ligand>  (1) 


>  <ChEMBL ID of Ligand>  (1) 
CHEMBL67919

>  <DrugBank ID of Ligand>  (1) 


>  <IUPHAR_GRAC ID of Ligand>  (1) 


>  <KEGG ID of Ligand>  (1) 


>  <ZINC ID of Ligand>  (1) 
ZINC26278221

>  <Number of Protein Chains in Target (bigger than 1 implies a multichain complex)>  (1) 
1

>  <BindingDB Target Chain Sequence>  (1) 
MMLNSSTEDGIKRIQDDCPKAGRHNYIFVMIPTLYSIIFVVGIFGNSLAVIVIYFYMKLKTVASVFLLNLALADLCFLLTLPLWAVYTAMEYRWPFGNYLCKIASASVSFNLYASVFLLTCLSIDRYLAIVHPMKSRLRRTMLVAKVTCIIIWLLAGLASLPAIIHRNVFFIENTNITVCAFHYESQNSTLPIGLGLTKNILGFLFPFLIILTSYTLIWKALKKAYEIQKNKPRNDDIFKIIMAIVLFFFFSWVPHQIFTFLDVLIQLGVIHDCRIADIVDTAMPITICIAYFNNCLNPLFYGFLGKKFKKYFLQLLKYIPPKAKSHSNLSTKMSTLSYRPSDNVSSSSKKPVPCFEVE

>  <PDB ID(s) of Target Chain>  (1) 
6DO1,6OS0,6OS1,6OS2

>  <UniProt (SwissProt) Recommended Name of Target Chain>  (1) 
Type-1 angiotensin II receptor

>  <UniProt (SwissProt) Entry Name of Target Chain>  (1) 
AGTR1_RABIT

>  <UniProt (SwissProt) Primary ID of Target Chain>  (1) 
P34976

>  <UniProt (SwissProt) Secondary ID(s) of Target Chain>  (1) 


>  <UniProt (SwissProt) Alternative ID(s) of Target Chain>  (1) 


>  <UniProt (TrEMBL) Submitted Name of Target Chain>  (1) 


>  <UniProt (TrEMBL) Entry Name of Target Chain>  (1) 


>  <UniProt (TrEMBL) Primary ID of Target Chain>  (1) 


>  <UniProt (TrEMBL) Secondary ID(s) of Target Chain>  (1) 


>  <UniProt (TrEMBL) Alternative ID(s) of Target Chain>  (1) 


$$$$
