
     RDKit          2D

 49 53  0  0  0  0  0  0  0  0999 V2000
    7.5264   -0.5751    0.0000 S   0  0  0  0  0  0  0  0  0  0  0  0
    3.2506   -0.5793    0.0000 N   0  0  0  0  0  0  0  0  0  0  0  0
    2.5297   -0.1667    0.0000 C   0  0  0  0  0  0  0  0  0  0  0  0
    1.8128   -0.5793    0.0000 C   0  0  0  0  0  0  0  0  0  0  0  0
    3.2506   -1.4128    0.0000 C   0  0  0  0  0  0  0  0  0  0  0  0
    2.5297   -1.8253    0.0000 N   0  0  0  0  0  0  0  0  0  0  0  0
    7.5181    0.2500    0.0000 N   0  0  0  0  0  0  0  0  0  0  0  0
   -1.0377   -0.5918    0.0000 C   0  0  0  0  0  0  0  0  0  0  0  0
    1.8128   -1.4170    0.0000 C   0  0  0  0  0  0  0  0  0  0  0  0
    7.5306   -1.4003    0.0000 C   0  0  0  0  0  0  0  0  0  0  0  0
    3.9632   -0.1667    0.0000 C   0  0  0  0  0  0  0  0  0  0  0  0
    8.2391    0.6626    0.0000 C   0  0  0  0  0  0  0  0  0  0  0  0
    4.6801   -0.5793    0.0000 C   0  0  0  0  0  0  0  0  0  0  0  0
    6.8180   -1.8128    0.0000 C   0  0  0  0  0  0  0  0  0  0  0  0
    6.1054   -1.4045    0.0000 C   0  0  0  0  0  0  0  0  0  0  0  0
   -1.7586   -0.1792    0.0000 N   0  0  0  0  0  0  0  0  0  0  0  0
   -0.3251   -0.1792    0.0000 N   0  0  0  0  0  0  0  0  0  0  0  0
    5.3885   -0.1667    0.0000 C   0  0  0  0  0  0  0  0  0  0  0  0
    6.7013   -0.5751    0.0000 O   0  0  0  0  0  0  0  0  0  0  0  0
    8.3516   -0.5751    0.0000 O   0  0  0  0  0  0  0  0  0  0  0  0
    6.1012   -0.5793    0.0000 C   0  0  0  0  0  0  0  0  0  0  0  0
    1.1002   -0.1750    0.0000 C   0  0  0  0  0  0  0  0  0  0  0  0
    2.5255    0.6584    0.0000 O   0  0  0  0  0  0  0  0  0  0  0  0
   -1.0377   -1.4170    0.0000 O   0  0  0  0  0  0  0  0  0  0  0  0
   11.9190    0.6709    0.0000 C   0  0  0  0  0  0  0  0  0  0  0  0
   11.5064    1.3836    0.0000 C   0  0  0  0  0  0  0  0  0  0  0  0
    0.3918   -0.5918    0.0000 C   0  0  0  0  0  0  0  0  0  0  0  0
   11.0938    0.6709    0.0000 C   0  0  0  0  0  0  0  0  0  0  0  0
    4.6759   -1.4045    0.0000 C   0  0  0  0  0  0  0  0  0  0  0  0
    8.2308    1.4878    0.0000 O   0  0  0  0  0  0  0  0  0  0  0  0
    5.3885   -1.8170    0.0000 C   0  0  0  0  0  0  0  0  0  0  0  0
    1.1044   -1.8253    0.0000 C   0  0  0  0  0  0  0  0  0  0  0  0
   -2.4713   -0.5918    0.0000 C   0  0  0  0  0  0  0  0  0  0  0  0
    8.9517    0.2500    0.0000 O   0  0  0  0  0  0  0  0  0  0  0  0
    5.3802    0.6584    0.0000 F   0  0  0  0  0  0  0  0  0  0  0  0
    0.3876   -1.4170    0.0000 C   0  0  0  0  0  0  0  0  0  0  0  0
    3.9632   -1.8253    0.0000 C   0  0  0  0  0  0  0  0  0  0  0  0
    8.2433   -1.8045    0.0000 C   0  0  0  0  0  0  0  0  0  0  0  0
    9.6685    0.6709    0.0000 C   0  0  0  0  0  0  0  0  0  0  0  0
    6.8180   -2.6422    0.0000 C   0  0  0  0  0  0  0  0  0  0  0  0
   -1.7586    0.6459    0.0000 C   0  0  0  0  0  0  0  0  0  0  0  0
   10.3812    0.2583    0.0000 C   0  0  0  0  0  0  0  0  0  0  0  0
   -3.1839   -0.1792    0.0000 C   0  0  0  0  0  0  0  0  0  0  0  0
   -2.4713   -1.4170    0.0000 C   0  0  0  0  0  0  0  0  0  0  0  0
    3.9632   -2.6505    0.0000 C   0  0  0  0  0  0  0  0  0  0  0  0
    4.6801   -3.0631    0.0000 C   0  0  0  0  0  0  0  0  0  0  0  0
    7.5306   -3.0506    0.0000 C   0  0  0  0  0  0  0  0  0  0  0  0
    8.2433   -2.6380    0.0000 C   0  0  0  0  0  0  0  0  0  0  0  0
    4.6801   -3.8882    0.0000 C   0  0  0  0  0  0  0  0  0  0  0  0
  2 11  1  0
  3  2  1  0
  4  3  1  0
  5  2  1  0
  6  5  2  0
  7  1  1  0
  8 17  1  0
  9  6  1  0
 10  1  1  0
 11 13  1  0
 12  7  1  0
 13 29  2  0
 14 10  1  0
 15 14  1  0
 16  8  1  0
 17 27  1  0
 18 21  2  0
 19  1  2  0
 20  1  2  0
 21 15  1  0
 22  4  2  0
 23  3  2  0
 24  8  2  0
 25 28  1  0
 26 28  1  0
 27 22  1  0
 28 42  1  0
 29 31  1  0
 30 12  2  0
 31 15  2  0
 32  9  2  0
 33 16  1  0
 34 12  1  0
 35 18  1  0
 36 32  1  0
 37  5  1  0
 38 10  2  0
 39 34  1  0
 40 14  2  0
 41 16  1  0
 42 39  1  0
 43 33  1  0
 44 33  1  0
 45 37  1  0
 46 45  1  0
 47 48  2  0
 48 38  1  0
 49 46  1  0
 47 40  1  0
 13 18  1  0
 25 26  1  0
  9  4  1  0
 36 27  2  0
M  END
>  <From>  (1) 
www.bindingDB.org

>  <BindingDB Reactant_set_id>  (1) 
50469361

>  <Ligand InChI>  (1) 
InChI=1S/C36H42FN5O6S/c1-5-6-11-33-39-31-17-16-27(38-35(44)41(4)23(2)3)21-29(31)34(43)42(33)22-26-15-14-25(20-30(26)37)28-9-7-8-10-32(28)49(46,47)40-36(45)48-19-18-24-12-13-24/h7-10,14-17,20-21,23-24H,5-6,11-13,18-19,22H2,1-4H3,(H,38,44)(H,40,45)

>  <Ligand InChI Key>  (1) 
COFPUUSXDAODDA-UHFFFAOYSA-N

>  <BindingDB MonomerID>  (1) 
50283319

>  <BindingDB Ligand Name>  (1) 
2-Butyl-3-(3-fluoro-2'-(2-cyclopropylethyloxycarbonylaminosulphonyl)-biphenyl-4-ylmethyl)-6-(isopropyl-methyl-aminocarbonylamino)-3H-quinazolin-4-one::CHEMBL306362

>  <Target Name>  (1) 
Type-1 angiotensin II receptor

>  <Target Source Organism According to Curator or DataSource>  (1) 
Homo sapiens

>  <Ki (nM)>  (1) 


>  <IC50 (nM)>  (1) 
 1.2

>  <Kd (nM)>  (1) 


>  <EC50 (nM)>  (1) 


>  <kon (M-1-s-1)>  (1) 


>  <koff (s-1)>  (1) 


>  <pH>  (1) 


>  <Temp C>  (1) 


>  <Curation/DataSource>  (1) 
ChEMBL

>  <Article DOI>  (1) 
10.1016/0960-894X(94)85036-4

>  <BindingDB Entry DOI>  (1) 
10.7270/Q2X066Z9

>  <PMID>  (1) 


>  <PubChem AID>  (1) 


>  <Patent Number>  (1) 


>  <Authors>  (1) 
Glinka, TW; de Laszlo, SE; Siegl, PK; Chang, RS; Kivlighn, SD; Schorn, TS; Faust, KA; Chen, TB; Zingaro, GJ; Lotti, VJ; Greenlee, WJ

>  <Institution>  (1) 
TBA

>  <Link to Ligand in BindingDB>  (1) 
http://www.bindingdb.org/bind/chemsearch/marvin/MolStructure.jsp?monomerid=50283319

>  <Link to Ligand-Target Pair in BindingDB>  (1) 
http://www.bindingdb.org/jsp/dbsearch/PrimarySearch_ki.jsp?energyterm=kJ/mole&tag=r21&monomerid=50283319&enzyme=Type-1+angiotensin+II+receptor&column=ki&startPg=0&Increment=50&submit=Search

>  <Ligand HET ID in PDB>  (1) 


>  <PDB ID(s) for Ligand-Target Complex>  (1) 


>  <PubChem CID of Ligand>  (1) 
44314822

>  <PubChem SID of Ligand>  (1) 
104124976

>  <ChEBI ID of Ligand>  (1) 


>  <ChEMBL ID of Ligand>  (1) 
CHEMBL306362

>  <DrugBank ID of Ligand>  (1) 


>  <IUPHAR_GRAC ID of Ligand>  (1) 


>  <KEGG ID of Ligand>  (1) 


>  <ZINC ID of Ligand>  (1) 
ZINC26404424

>  <Number of Protein Chains in Target (bigger than 1 implies a multichain complex)>  (1) 
1

>  <BindingDB Target Chain Sequence>  (1) 
MILNSSTEDGIKRIQDDCPKAGRHNYIFVMIPTLYSIIFVVGIFGNSLVVIVIYFYMKLKTVASVFLLNLALADLCFLLTLPLWAVYTAMEYRWPFGNYLCKIASASVSFNLYASVFLLTCLSIDRYLAIVHPMKSRLRRTMLVAKVTCIIIWLLAGLASLPAIIHRNVFFIENTNITVCAFHYESQNSTLPIGLGLTKNILGFLFPFLIILTSYTLIWKALKKAYEIQKNKPRNDDIFKIIMAIVLFFFFSWIPHQIFTFLDVLIQLGIIRDCRIADIVDTAMPITICIAYFNNCLNPLFYGFLGKKFKRYFLQLLKYIPPKAKSHSNLSTKMSTLSYRPSDNVSSSTKKPAPCFEVE

>  <PDB ID(s) of Target Chain>  (1) 
6DO1,6OS0,6OS1,6OS2

>  <UniProt (SwissProt) Recommended Name of Target Chain>  (1) 
Type-1 angiotensin II receptor

>  <UniProt (SwissProt) Entry Name of Target Chain>  (1) 
AGTR1_HUMAN

>  <UniProt (SwissProt) Primary ID of Target Chain>  (1) 
P30556

>  <UniProt (SwissProt) Secondary ID(s) of Target Chain>  (1) 
Q13725 Q8TBK4

>  <UniProt (SwissProt) Alternative ID(s) of Target Chain>  (1) 


>  <UniProt (TrEMBL) Submitted Name of Target Chain>  (1) 


>  <UniProt (TrEMBL) Entry Name of Target Chain>  (1) 


>  <UniProt (TrEMBL) Primary ID of Target Chain>  (1) 


>  <UniProt (TrEMBL) Secondary ID(s) of Target Chain>  (1) 


>  <UniProt (TrEMBL) Alternative ID(s) of Target Chain>  (1) 


$$$$
