
     RDKit          2D

 47 51  0  0  0  0  0  0  0  0999 V2000
    3.4722   -5.2250    0.0000 N   0  0  0  0  0  0  0  0  0  0  0  0
    3.5223   -6.5647    0.0000 N   0  0  0  0  0  0  0  0  0  0  0  0
    7.1030   -5.9512    0.0000 S   0  0  0  0  0  0  0  0  0  0  0  0
    3.9856   -5.8761    0.0000 C   0  0  0  0  0  0  0  0  0  0  0  0
    2.6960   -5.5130    0.0000 N   0  0  0  0  0  0  0  0  0  0  0  0
    2.7294   -6.3393    0.0000 C   0  0  0  0  0  0  0  0  0  0  0  0
    6.6899   -5.2250    0.0000 N   0  0  0  0  0  0  0  0  0  0  0  0
    3.6976   -4.4321    0.0000 C   0  0  0  0  0  0  0  0  0  0  0  0
    7.1156   -4.5114    0.0000 C   0  0  0  0  0  0  0  0  0  0  0  0
    7.5037   -6.6774    0.0000 C   0  0  0  0  0  0  0  0  0  0  0  0
    7.9126   -4.2944    0.0000 C   0  0  0  0  0  0  0  0  0  0  0  0
    4.5114   -4.3111    0.0000 C   0  0  0  0  0  0  0  0  0  0  0  0
    7.0905   -7.3785    0.0000 C   0  0  0  0  0  0  0  0  0  0  0  0
    4.8119   -3.5432    0.0000 C   0  0  0  0  0  0  0  0  0  0  0  0
    5.6257   -3.4180    0.0000 C   0  0  0  0  0  0  0  0  0  0  0  0
    3.8103   -7.3409    0.0000 C   0  0  0  0  0  0  0  0  0  0  0  0
    7.8167   -5.5380    0.0000 O   0  0  0  0  0  0  0  0  0  0  0  0
    6.3769   -6.3518    0.0000 O   0  0  0  0  0  0  0  0  0  0  0  0
    4.8119   -5.8468    0.0000 O   0  0  0  0  0  0  0  0  0  0  0  0
    3.1843   -3.7936    0.0000 C   0  0  0  0  0  0  0  0  0  0  0  0
    6.2725   -7.3660    0.0000 C   0  0  0  0  0  0  0  0  0  0  0  0
    8.1172   -3.4973    0.0000 C   0  0  0  0  0  0  0  0  0  0  0  0
    6.7107   -3.7936    0.0000 O   0  0  0  0  0  0  0  0  0  0  0  0
    6.1473   -4.0607    0.0000 O   0  0  0  0  0  0  0  0  0  0  0  0
    4.2986   -2.8963    0.0000 C   0  0  0  0  0  0  0  0  0  0  0  0
    3.4806   -3.0215    0.0000 C   0  0  0  0  0  0  0  0  0  0  0  0
    5.8510   -8.0754    0.0000 C   0  0  0  0  0  0  0  0  0  0  0  0
    5.8636   -6.6523    0.0000 C   0  0  0  0  0  0  0  0  0  0  0  0
    4.6324   -7.3492    0.0000 C   0  0  0  0  0  0  0  0  0  0  0  0
    2.3663   -3.9188    0.0000 Cl  0  0  0  0  0  0  0  0  0  0  0  0
    5.9262   -2.6459    0.0000 O   0  0  0  0  0  0  0  0  0  0  0  0
    7.5287   -2.9088    0.0000 Cl  0  0  0  0  0  0  0  0  0  0  0  0
    2.0825   -6.8526    0.0000 C   0  0  0  0  0  0  0  0  0  0  0  0
    5.0456   -6.6481    0.0000 C   0  0  0  0  0  0  0  0  0  0  0  0
    5.0330   -8.0671    0.0000 C   0  0  0  0  0  0  0  0  0  0  0  0
    8.4928   -4.8745    0.0000 C   0  0  0  0  0  0  0  0  0  0  0  0
    8.3300   -6.6774    0.0000 C   0  0  0  0  0  0  0  0  0  0  0  0
    7.4912   -8.1004    0.0000 C   0  0  0  0  0  0  0  0  0  0  0  0
    8.9059   -3.2802    0.0000 C   0  0  0  0  0  0  0  0  0  0  0  0
    6.7483   -2.5290    0.0000 C   0  0  0  0  0  0  0  0  0  0  0  0
    1.3146   -6.5396    0.0000 C   0  0  0  0  0  0  0  0  0  0  0  0
    0.6636   -7.0530    0.0000 C   0  0  0  0  0  0  0  0  0  0  0  0
    9.2898   -4.6616    0.0000 C   0  0  0  0  0  0  0  0  0  0  0  0
    8.7389   -7.4035    0.0000 C   0  0  0  0  0  0  0  0  0  0  0  0
    8.3175   -8.1046    0.0000 C   0  0  0  0  0  0  0  0  0  0  0  0
   -0.1002   -6.7483    0.0000 C   0  0  0  0  0  0  0  0  0  0  0  0
    9.4944   -3.8604    0.0000 C   0  0  0  0  0  0  0  0  0  0  0  0
  2  4  1  0
  3 10  1  0
  4  1  1  0
  5  1  1  0
  6  5  2  0
  7  3  1  0
  8  1  1  0
  9  7  1  0
 10 13  1  0
 11  9  1  0
 12  8  2  0
 13 21  1  0
 14 12  1  0
 15 14  1  0
 16  2  1  0
 17  3  2  0
 18  3  2  0
 19  4  2  0
 20  8  1  0
 21 27  2  0
 22 11  2  0
 23  9  2  0
 24 15  2  0
 25 26  1  0
 26 20  2  0
 27 35  1  0
 28 34  2  0
 29 16  1  0
 30 20  1  0
 31 15  1  0
 32 22  1  0
 33  6  1  0
 34 29  1  0
 35 29  2  0
 36 11  1  0
 37 10  2  0
 38 13  2  0
 39 22  1  0
 40 31  1  0
 41 33  1  0
 42 41  1  0
 43 36  2  0
 44 45  2  0
 45 38  1  0
 46 42  1  0
 47 43  1  0
  6  2  1  0
 14 25  2  0
 28 21  1  0
 44 37  1  0
 39 47  2  0
M  END
>  <From>  (1) 
www.bindingDB.org

>  <BindingDB Reactant_set_id>  (1) 
51075704

>  <Ligand InChI>  (1) 
InChI=1S/C34H30Cl2N4O6S/c1-3-4-13-31-37-40(29-20-24(33(42)46-2)18-19-28(29)36)34(43)39(31)21-22-14-16-23(17-15-22)25-9-6-8-12-30(25)47(44,45)38-32(41)26-10-5-7-11-27(26)35/h5-12,14-20H,3-4,13,21H2,1-2H3,(H,38,41)

>  <Ligand InChI Key>  (1) 
WWBXIWQFUHZXCI-UHFFFAOYSA-N

>  <BindingDB MonomerID>  (1) 
50035460

>  <BindingDB Ligand Name>  (1) 
3-{3-Butyl-4-[2'-(2-chloro-benzoylsulfamoyl)-biphenyl-4-ylmethyl]-5-oxo-4,5-dihydro-[1,2,4]triazol-1-yl}-4-chloro-benzoic acid methyl ester::CHEMBL341783

>  <Target Name>  (1) 
Type-1 angiotensin II receptor

>  <Target Source Organism According to Curator or DataSource>  (1) 
Oryctolagus cuniculus

>  <Ki (nM)>  (1) 


>  <IC50 (nM)>  (1) 
 0.250000

>  <Kd (nM)>  (1) 


>  <EC50 (nM)>  (1) 


>  <kon (M-1-s-1)>  (1) 


>  <koff (s-1)>  (1) 


>  <pH>  (1) 


>  <Temp C>  (1) 


>  <Curation/DataSource>  (1) 
ChEMBL

>  <Article DOI>  (1) 
10.1007/s00044-013-0831-x

>  <BindingDB Entry DOI>  (1) 
10.7270/Q2C82BRJ

>  <PMID>  (1) 


>  <PubChem AID>  (1) 


>  <Patent Number>  (1) 


>  <Authors>  (1) 
n/a

>  <Institution>  (1) 
n/a

>  <Link to Ligand in BindingDB>  (1) 
http://www.bindingdb.org/bind/chemsearch/marvin/MolStructure.jsp?monomerid=50035460

>  <Link to Ligand-Target Pair in BindingDB>  (1) 
http://www.bindingdb.org/jsp/dbsearch/PrimarySearch_ki.jsp?energyterm=kJ/mole&tag=r21&monomerid=50035460&enzyme=Type-1+angiotensin+II+receptor&column=ki&startPg=0&Increment=50&submit=Search

>  <Ligand HET ID in PDB>  (1) 


>  <PDB ID(s) for Ligand-Target Complex>  (1) 


>  <PubChem CID of Ligand>  (1) 
10372497

>  <PubChem SID of Ligand>  (1) 
103943479

>  <ChEBI ID of Ligand>  (1) 


>  <ChEMBL ID of Ligand>  (1) 
CHEMBL341783

>  <DrugBank ID of Ligand>  (1) 


>  <IUPHAR_GRAC ID of Ligand>  (1) 


>  <KEGG ID of Ligand>  (1) 


>  <ZINC ID of Ligand>  (1) 
ZINC27517613

>  <Number of Protein Chains in Target (bigger than 1 implies a multichain complex)>  (1) 
1

>  <BindingDB Target Chain Sequence>  (1) 
MMLNSSTEDGIKRIQDDCPKAGRHNYIFVMIPTLYSIIFVVGIFGNSLAVIVIYFYMKLKTVASVFLLNLALADLCFLLTLPLWAVYTAMEYRWPFGNYLCKIASASVSFNLYASVFLLTCLSIDRYLAIVHPMKSRLRRTMLVAKVTCIIIWLLAGLASLPAIIHRNVFFIENTNITVCAFHYESQNSTLPIGLGLTKNILGFLFPFLIILTSYTLIWKALKKAYEIQKNKPRNDDIFKIIMAIVLFFFFSWVPHQIFTFLDVLIQLGVIHDCRIADIVDTAMPITICIAYFNNCLNPLFYGFLGKKFKKYFLQLLKYIPPKAKSHSNLSTKMSTLSYRPSDNVSSSSKKPVPCFEVE

>  <PDB ID(s) of Target Chain>  (1) 
6DO1,6OS0,6OS1,6OS2

>  <UniProt (SwissProt) Recommended Name of Target Chain>  (1) 
Type-1 angiotensin II receptor

>  <UniProt (SwissProt) Entry Name of Target Chain>  (1) 
AGTR1_RABIT

>  <UniProt (SwissProt) Primary ID of Target Chain>  (1) 
P34976

>  <UniProt (SwissProt) Secondary ID(s) of Target Chain>  (1) 


>  <UniProt (SwissProt) Alternative ID(s) of Target Chain>  (1) 


>  <UniProt (TrEMBL) Submitted Name of Target Chain>  (1) 


>  <UniProt (TrEMBL) Entry Name of Target Chain>  (1) 


>  <UniProt (TrEMBL) Primary ID of Target Chain>  (1) 


>  <UniProt (TrEMBL) Secondary ID(s) of Target Chain>  (1) 


>  <UniProt (TrEMBL) Alternative ID(s) of Target Chain>  (1) 


$$$$
