
     RDKit          2D

 32 35  0  0  0  0  0  0  0  0999 V2000
    2.7213   -1.2089    0.0000 N   0  0  0  0  0  0  0  0  0  0  0  0
    3.1280    0.0630    0.0000 N   0  0  0  0  0  0  0  0  0  0  0  0
    3.3859   -0.7276    0.0000 C   0  0  0  0  0  0  0  0  0  0  0  0
    2.3031    0.0630    0.0000 N   0  0  0  0  0  0  0  0  0  0  0  0
    2.0510   -0.7276    0.0000 C   0  0  0  0  0  0  0  0  0  0  0  0
    6.2791   -2.4463    0.0000 C   0  0  0  0  0  0  0  0  0  0  0  0
    5.8666   -1.1859    0.0000 N   0  0  0  0  0  0  0  0  0  0  0  0
    5.6088   -1.9651    0.0000 N   0  0  0  0  0  0  0  0  0  0  0  0
    6.6915   -1.1745    0.0000 N   0  0  0  0  0  0  0  0  0  0  0  0
    6.9494   -1.9651    0.0000 N   0  0  0  0  0  0  0  0  0  0  0  0
    3.6151    0.7333    0.0000 C   0  0  0  0  0  0  0  0  0  0  0  0
    6.2905   -3.2713    0.0000 C   0  0  0  0  0  0  0  0  0  0  0  0
    5.5744   -3.6838    0.0000 C   0  0  0  0  0  0  0  0  0  0  0  0
    2.7213   -2.0339    0.0000 C   0  0  0  0  0  0  0  0  0  0  0  0
    4.4343    0.6473    0.0000 C   0  0  0  0  0  0  0  0  0  0  0  0
    4.1650   -0.9797    0.0000 O   0  0  0  0  0  0  0  0  0  0  0  0
    4.8639   -3.2713    0.0000 C   0  0  0  0  0  0  0  0  0  0  0  0
    4.7666   -0.1089    0.0000 O   0  0  0  0  0  0  0  0  0  0  0  0
    4.1593   -3.6838    0.0000 C   0  0  0  0  0  0  0  0  0  0  0  0
    4.8697   -2.4463    0.0000 C   0  0  0  0  0  0  0  0  0  0  0  0
    3.4374   -2.4463    0.0000 C   0  0  0  0  0  0  0  0  0  0  0  0
    1.2718   -0.9854    0.0000 C   0  0  0  0  0  0  0  0  0  0  0  0
    4.9155    1.3176    0.0000 O   0  0  0  0  0  0  0  0  0  0  0  0
    4.1479   -2.0339    0.0000 C   0  0  0  0  0  0  0  0  0  0  0  0
    3.4432   -3.2713    0.0000 C   0  0  0  0  0  0  0  0  0  0  0  0
    7.0009   -3.6838    0.0000 C   0  0  0  0  0  0  0  0  0  0  0  0
    5.5744   -4.5088    0.0000 C   0  0  0  0  0  0  0  0  0  0  0  0
    0.6531   -0.4355    0.0000 C   0  0  0  0  0  0  0  0  0  0  0  0
   -0.1317   -0.6933    0.0000 C   0  0  0  0  0  0  0  0  0  0  0  0
    7.0009   -4.5088    0.0000 C   0  0  0  0  0  0  0  0  0  0  0  0
    6.2905   -4.9213    0.0000 C   0  0  0  0  0  0  0  0  0  0  0  0
   -0.7505   -0.1433    0.0000 C   0  0  0  0  0  0  0  0  0  0  0  0
  2  3  1  0
  3  1  1  0
  4  5  2  0
  5  1  1  0
  6 12  1  0
  7  8  1  0
  8  6  1  0
  9 10  1  0
 10  6  2  0
 11  2  1  0
 12 13  1  0
 13 17  1  0
 14  1  1  0
 15 11  1  0
 16  3  2  0
 17 19  2  0
 18 15  2  0
 19 25  1  0
 20 24  2  0
 21 14  1  0
 22  5  1  0
 23 15  1  0
 24 21  1  0
 25 21  2  0
 26 12  2  0
 27 13  2  0
 28 22  1  0
 29 28  1  0
 30 31  2  0
 31 27  1  0
 32 29  1  0
  2  4  1  0
 17 20  1  0
 30 26  1  0
  9  7  2  0
M  END
>  <From>  (1) 
www.bindingDB.org

>  <BindingDB Reactant_set_id>  (1) 
50071184

>  <Ligand InChI>  (1) 
InChI=1S/C22H23N7O3/c1-2-3-8-19-25-29(14-20(30)31)22(32)28(19)13-15-9-11-16(12-10-15)17-6-4-5-7-18(17)21-23-26-27-24-21/h4-7,9-12H,2-3,8,13-14H2,1H3,(H,30,31)(H,23,24,26,27)

>  <Ligand InChI Key>  (1) 
RGLJSZWMSYPTER-UHFFFAOYSA-N

>  <BindingDB MonomerID>  (1) 
50044371

>  <BindingDB Ligand Name>  (1) 
CHEMBL68582::{3-Butyl-5-oxo-4-[2'-(1H-tetrazol-5-yl)-biphenyl-4-ylmethyl]-4,5-dihydro-[1,2,4]triazol-1-yl}-acetic acid

>  <Target Name>  (1) 
Type-1 angiotensin II receptor B

>  <Target Source Organism According to Curator or DataSource>  (1) 
Rattus

>  <Ki (nM)>  (1) 


>  <IC50 (nM)>  (1) 
 91

>  <Kd (nM)>  (1) 


>  <EC50 (nM)>  (1) 


>  <kon (M-1-s-1)>  (1) 


>  <koff (s-1)>  (1) 


>  <pH>  (1) 


>  <Temp C>  (1) 


>  <Curation/DataSource>  (1) 
ChEMBL

>  <Article DOI>  (1) 
10.1021/jm00067a015

>  <BindingDB Entry DOI>  (1) 
10.7270/Q2C53JXM

>  <PMID>  (1) 
8340920

>  <PubChem AID>  (1) 


>  <Patent Number>  (1) 


>  <Authors>  (1) 
Huang, HC; Reitz, DB; Chamberlain, TS; Olins, GM; Corpus, VM; McMahon, EG; Palomo, MA; Koepke, JP; Smits, GJ; McGraw, DE

>  <Institution>  (1) 
Searle R&D

>  <Link to Ligand in BindingDB>  (1) 
http://www.bindingdb.org/bind/chemsearch/marvin/MolStructure.jsp?monomerid=50044371

>  <Link to Ligand-Target Pair in BindingDB>  (1) 
http://www.bindingdb.org/jsp/dbsearch/PrimarySearch_ki.jsp?energyterm=kJ/mole&tag=r21&monomerid=50044371&enzyme=Type-1+angiotensin+II+receptor+B&column=ki&startPg=0&Increment=50&submit=Search

>  <Ligand HET ID in PDB>  (1) 


>  <PDB ID(s) for Ligand-Target Complex>  (1) 


>  <PubChem CID of Ligand>  (1) 
14951065

>  <PubChem SID of Ligand>  (1) 
103975626

>  <ChEBI ID of Ligand>  (1) 


>  <ChEMBL ID of Ligand>  (1) 
CHEMBL68582

>  <DrugBank ID of Ligand>  (1) 


>  <IUPHAR_GRAC ID of Ligand>  (1) 


>  <KEGG ID of Ligand>  (1) 


>  <ZINC ID of Ligand>  (1) 
ZINC01552279

>  <Number of Protein Chains in Target (bigger than 1 implies a multichain complex)>  (1) 
1

>  <BindingDB Target Chain Sequence>  (1) 
MTLNSSTEDGIKRIQDDCPKAGRHNYIFVMIPTLYSIIFVVGIFGNSLVVIVIYFYMKLKTVASVFLLNLALADLCFLLTLPLWAVYTAMEYRWPFGNHLCKIASASVSFNLYASVFLLTCLSIDRYLAIVHPMKSRLRRTMLVAKVTCIIIWLMAGLASLPAVIYRNVYFIENTNITVCAFHYESQNSTLPIGLGLTKNILGFVFPFLIILTSYTLIWKALKKAYKIQKNTPRNDDIFRIIMAIVLFFFFSWVPHQIFTFLDVLIQLGIIRDCEIADIVDTAMPITICIAYFNNCLNPLFYGFLGKKFKKYFLQLLKYIPPTAKSHAGLSTKMSTLSYRPSDNMSSSAKKSASFFEVE

>  <PDB ID(s) of Target Chain>  (1) 


>  <UniProt (SwissProt) Recommended Name of Target Chain>  (1) 
Type-1 angiotensin II receptor B

>  <UniProt (SwissProt) Entry Name of Target Chain>  (1) 
AGTRB_RAT

>  <UniProt (SwissProt) Primary ID of Target Chain>  (1) 
P29089

>  <UniProt (SwissProt) Secondary ID(s) of Target Chain>  (1) 


>  <UniProt (SwissProt) Alternative ID(s) of Target Chain>  (1) 


>  <UniProt (TrEMBL) Submitted Name of Target Chain>  (1) 


>  <UniProt (TrEMBL) Entry Name of Target Chain>  (1) 


>  <UniProt (TrEMBL) Primary ID of Target Chain>  (1) 


>  <UniProt (TrEMBL) Secondary ID(s) of Target Chain>  (1) 


>  <UniProt (TrEMBL) Alternative ID(s) of Target Chain>  (1) 


$$$$
