
     RDKit          2D

 32 36  0  0  0  0  0  0  0  0999 V2000
    3.3917    2.0958    0.0000 C   0  0  0  0  0  0  0  0  0  0  0  0
    3.7250    2.8375    0.0000 N   0  0  0  0  0  0  0  0  0  0  0  0
    4.5500    2.7500    0.0000 N   0  0  0  0  0  0  0  0  0  0  0  0
    4.0042    1.5375    0.0000 N   0  0  0  0  0  0  0  0  0  0  0  0
    4.7167    1.9458    0.0000 N   0  0  0  0  0  0  0  0  0  0  0  0
    1.2500    8.2917    0.0000 N   0  0  0  0  0  0  0  0  0  0  0  0
    2.6750    1.6833    0.0000 C   0  0  0  0  0  0  0  0  0  0  0  0
    1.9625    7.0542    0.0000 C   0  0  0  0  0  0  0  0  0  0  0  0
    1.2500    6.6417    0.0000 C   0  0  0  0  0  0  0  0  0  0  0  0
    1.9625    7.8792    0.0000 C   0  0  0  0  0  0  0  0  0  0  0  0
    1.9625    2.0958    0.0000 C   0  0  0  0  0  0  0  0  0  0  0  0
    1.9625    2.9250    0.0000 C   0  0  0  0  0  0  0  0  0  0  0  0
    1.2417    4.1667    0.0000 C   0  0  0  0  0  0  0  0  0  0  0  0
    1.9625    4.5792    0.0000 C   0  0  0  0  0  0  0  0  0  0  0  0
    0.5292    7.0542    0.0000 C   0  0  0  0  0  0  0  0  0  0  0  0
    1.2417    3.3375    0.0000 C   0  0  0  0  0  0  0  0  0  0  0  0
    0.5292    7.8792    0.0000 C   0  0  0  0  0  0  0  0  0  0  0  0
    1.2500    5.8167    0.0000 O   0  0  0  0  0  0  0  0  0  0  0  0
    1.9625    5.4042    0.0000 C   0  0  0  0  0  0  0  0  0  0  0  0
    2.6750    3.3375    0.0000 C   0  0  0  0  0  0  0  0  0  0  0  0
    2.6750    4.1667    0.0000 C   0  0  0  0  0  0  0  0  0  0  0  0
    0.5292    4.5792    0.0000 F   0  0  0  0  0  0  0  0  0  0  0  0
    2.6750    6.6417    0.0000 C   0  0  0  0  0  0  0  0  0  0  0  0
    2.6750    0.8583    0.0000 C   0  0  0  0  0  0  0  0  0  0  0  0
    1.2417    1.6833    0.0000 C   0  0  0  0  0  0  0  0  0  0  0  0
    2.6750    8.2917    0.0000 C   0  0  0  0  0  0  0  0  0  0  0  0
   -0.1875    8.2917    0.0000 C   0  0  0  0  0  0  0  0  0  0  0  0
    3.3917    7.0542    0.0000 C   0  0  0  0  0  0  0  0  0  0  0  0
   -0.9000    7.8792    0.0000 C   0  0  0  0  0  0  0  0  0  0  0  0
    1.2417    0.8583    0.0000 C   0  0  0  0  0  0  0  0  0  0  0  0
    1.9625    0.4458    0.0000 C   0  0  0  0  0  0  0  0  0  0  0  0
    3.3917    7.8792    0.0000 C   0  0  0  0  0  0  0  0  0  0  0  0
  2  1  1  0
  3  2  1  0
  4  1  2  0
  5  4  1  0
  6 17  2  0
  7  1  1  0
  8  9  1  0
  9 18  1  0
 10  8  2  0
 11  7  1  0
 12 11  1  0
 13 16  2  0
 14 21  2  0
 15  9  2  0
 16 12  1  0
 17 15  1  0
 18 19  1  0
 19 14  1  0
 20 12  2  0
 21 20  1  0
 22 13  1  0
 23  8  1  0
 24  7  2  0
 25 11  2  0
 26 10  1  0
 27 17  1  0
 28 23  1  0
 29 27  1  0
 30 31  2  0
 31 24  1  0
 32 28  1  0
  3  5  2  0
 25 30  1  0
 14 13  1  0
 10  6  1  0
 32 26  1  0
M  END
>  <From>  (1) 
www.bindingDB.org

>  <BindingDB Reactant_set_id>  (1) 
50003190

>  <Ligand InChI>  (1) 
InChI=1S/C25H24FN5O/c1-2-18-14-24(21-9-5-6-10-23(21)27-18)32-15-17-12-11-16(13-22(17)26)19-7-3-4-8-20(19)25-28-30-31-29-25/h3-4,7-8,11-14H,2,5-6,9-10,15H2,1H3,(H,28,29,30,31)

>  <Ligand InChI Key>  (1) 
IFOUVXQJTBIQQW-UHFFFAOYSA-N

>  <BindingDB MonomerID>  (1) 
50283587

>  <BindingDB Ligand Name>  (1) 
2-Ethyl-4-[3-fluoro-2'-(2H-tetrazol-5-yl)-biphenyl-4-ylmethoxy]-5,6,7,8-tetrahydro-quinoline::CHEMBL314982

>  <Target Name>  (1) 
Type-1 angiotensin II receptor

>  <Target Source Organism According to Curator or DataSource>  (1) 
Cavia porcellus

>  <Ki (nM)>  (1) 


>  <IC50 (nM)>  (1) 
 9

>  <Kd (nM)>  (1) 


>  <EC50 (nM)>  (1) 


>  <kon (M-1-s-1)>  (1) 


>  <koff (s-1)>  (1) 


>  <pH>  (1) 


>  <Temp C>  (1) 


>  <Curation/DataSource>  (1) 
ChEMBL

>  <Article DOI>  (1) 
10.1016/S0960-894X(01)80295-X

>  <BindingDB Entry DOI>  (1) 
10.7270/Q22J6BTX

>  <PMID>  (1) 


>  <PubChem AID>  (1) 


>  <Patent Number>  (1) 


>  <Authors>  (1) 
Thomas, AP; Roberts, DA; Thomason, DA

>  <Institution>  (1) 
TBA

>  <Link to Ligand in BindingDB>  (1) 
http://www.bindingdb.org/bind/chemsearch/marvin/MolStructure.jsp?monomerid=50283587

>  <Link to Ligand-Target Pair in BindingDB>  (1) 
http://www.bindingdb.org/jsp/dbsearch/PrimarySearch_ki.jsp?energyterm=kJ/mole&tag=r21&monomerid=50283587&enzyme=Type-1+angiotensin+II+receptor&column=ki&startPg=0&Increment=50&submit=Search

>  <Ligand HET ID in PDB>  (1) 


>  <PDB ID(s) for Ligand-Target Complex>  (1) 


>  <PubChem CID of Ligand>  (1) 
15171413

>  <PubChem SID of Ligand>  (1) 
104125244

>  <ChEBI ID of Ligand>  (1) 


>  <ChEMBL ID of Ligand>  (1) 
CHEMBL314982

>  <DrugBank ID of Ligand>  (1) 


>  <IUPHAR_GRAC ID of Ligand>  (1) 


>  <KEGG ID of Ligand>  (1) 


>  <ZINC ID of Ligand>  (1) 
ZINC26577947

>  <Number of Protein Chains in Target (bigger than 1 implies a multichain complex)>  (1) 
1

>  <BindingDB Target Chain Sequence>  (1) 
MILNSSTEDGIKRIQDDCPKAGRHSYIFVMIPTLYSIIFVVGIFGNSLVVIVIYFYMKLKTVASVFLLNLALADICFLLTLPLWAVYTAMEYRWPFGNYLCKIASASVSFNLYASVFLLTCLSIDRYLAIVHPMKSRLRRTMLVAKVTCVIIWLMAGLASLPAVIHRNVFFIENTNITVCAFHYESQNSTLPIGLGLTKNILGFMFPFLIILTSYTLIWKALKKAYEIQKNKPRNDDIFKIIMAIVLFFFFSWVPHQIFTFLDVLIQLGIIHDCKISDIVDTAMPITICIAYFNNCLNPLFYGFLGKKFKKYFLQLLKYIPPKAKSHSTLSTKMSTLSYRPSDNVSSSAKKPVQCFEVE

>  <PDB ID(s) of Target Chain>  (1) 
4ZUD

>  <UniProt (SwissProt) Recommended Name of Target Chain>  (1) 
Type-1 angiotensin II receptor

>  <UniProt (SwissProt) Entry Name of Target Chain>  (1) 
AGTR1_CAVPO

>  <UniProt (SwissProt) Primary ID of Target Chain>  (1) 
Q9WV26

>  <UniProt (SwissProt) Secondary ID(s) of Target Chain>  (1) 


>  <UniProt (SwissProt) Alternative ID(s) of Target Chain>  (1) 


>  <UniProt (TrEMBL) Submitted Name of Target Chain>  (1) 


>  <UniProt (TrEMBL) Entry Name of Target Chain>  (1) 


>  <UniProt (TrEMBL) Primary ID of Target Chain>  (1) 


>  <UniProt (TrEMBL) Secondary ID(s) of Target Chain>  (1) 


>  <UniProt (TrEMBL) Alternative ID(s) of Target Chain>  (1) 


$$$$
