
     RDKit          2D

 41 45  0  0  0  0  0  0  0  0999 V2000
    3.6743   -2.8935    0.0000 C   0  0  0  0  0  0  0  0  0  0  0  0
    3.6743   -2.0585    0.0000 N   0  0  0  0  0  0  0  0  0  0  0  0
    2.9561   -3.3068    0.0000 N   0  0  0  0  0  0  0  0  0  0  0  0
    2.9561   -1.6451    0.0000 C   0  0  0  0  0  0  0  0  0  0  0  0
    2.2421   -2.0585    0.0000 C   0  0  0  0  0  0  0  0  0  0  0  0
    2.2421   -2.8935    0.0000 C   0  0  0  0  0  0  0  0  0  0  0  0
    5.0980   -7.0270    0.0000 C   0  0  0  0  0  0  0  0  0  0  0  0
    3.7870   -7.3026    0.0000 N   0  0  0  0  0  0  0  0  0  0  0  0
    4.3382   -6.6888    0.0000 N   0  0  0  0  0  0  0  0  0  0  0  0
    4.2004   -8.0208    0.0000 N   0  0  0  0  0  0  0  0  0  0  0  0
    5.0104   -7.8454    0.0000 N   0  0  0  0  0  0  0  0  0  0  0  0
    5.8120   -6.6137    0.0000 C   0  0  0  0  0  0  0  0  0  0  0  0
    6.5427   -2.0459    0.0000 C   0  0  0  0  0  0  0  0  0  0  0  0
    5.8120   -5.7870    0.0000 C   0  0  0  0  0  0  0  0  0  0  0  0
    2.9561   -4.1335    0.0000 C   0  0  0  0  0  0  0  0  0  0  0  0
    4.3966   -3.3068    0.0000 O   0  0  0  0  0  0  0  0  0  0  0  0
    7.2567   -1.6326    0.0000 N   0  0  0  0  0  0  0  0  0  0  0  0
    5.1023   -5.3736    0.0000 C   0  0  0  0  0  0  0  0  0  0  0  0
    2.9561   -0.8184    0.0000 O   0  0  0  0  0  0  0  0  0  0  0  0
    6.5427   -2.8726    0.0000 O   0  0  0  0  0  0  0  0  0  0  0  0
    4.3966   -1.6409    0.0000 C   0  0  0  0  0  0  0  0  0  0  0  0
    5.8288   -1.6409    0.0000 N   0  0  0  0  0  0  0  0  0  0  0  0
    4.3841   -5.7870    0.0000 C   0  0  0  0  0  0  0  0  0  0  0  0
    5.0980   -4.5386    0.0000 C   0  0  0  0  0  0  0  0  0  0  0  0
    3.6701   -4.5469    0.0000 C   0  0  0  0  0  0  0  0  0  0  0  0
    3.6701   -5.3736    0.0000 C   0  0  0  0  0  0  0  0  0  0  0  0
    4.3841   -4.1335    0.0000 C   0  0  0  0  0  0  0  0  0  0  0  0
    1.5198   -3.3068    0.0000 C   0  0  0  0  0  0  0  0  0  0  0  0
    5.1106   -2.0542    0.0000 C   0  0  0  0  0  0  0  0  0  0  0  0
    7.9707   -2.0459    0.0000 C   0  0  0  0  0  0  0  0  0  0  0  0
    6.5260   -7.0270    0.0000 C   0  0  0  0  0  0  0  0  0  0  0  0
    6.5260   -5.3736    0.0000 C   0  0  0  0  0  0  0  0  0  0  0  0
    7.9707   -2.8810    0.0000 C   0  0  0  0  0  0  0  0  0  0  0  0
    8.6847   -1.6326    0.0000 C   0  0  0  0  0  0  0  0  0  0  0  0
    0.8059   -2.8935    0.0000 C   0  0  0  0  0  0  0  0  0  0  0  0
    7.2400   -5.7787    0.0000 C   0  0  0  0  0  0  0  0  0  0  0  0
    7.2442   -6.6137    0.0000 C   0  0  0  0  0  0  0  0  0  0  0  0
    0.0919   -3.3068    0.0000 C   0  0  0  0  0  0  0  0  0  0  0  0
    9.3986   -2.0542    0.0000 C   0  0  0  0  0  0  0  0  0  0  0  0
    8.6847   -3.2860    0.0000 C   0  0  0  0  0  0  0  0  0  0  0  0
    9.3986   -2.8810    0.0000 C   0  0  0  0  0  0  0  0  0  0  0  0
  2  1  1  0
  3  1  1  0
  4  2  1  0
  5  6  2  0
  6  3  1  0
  7 12  1  0
  8  9  1  0
  9  7  1  0
 10 11  1  0
 11  7  2  0
 12 14  1  0
 13 22  1  0
 14 18  1  0
 15  3  1  0
 16  1  2  0
 17 13  1  0
 18 24  2  0
 19  4  2  0
 20 13  2  0
 21  2  1  0
 22 29  1  0
 23 26  2  0
 24 27  1  0
 25 15  1  0
 26 25  1  0
 27 25  2  0
 28  6  1  0
 29 21  1  0
 30 17  1  0
 31 12  2  0
 32 14  2  0
 33 30  1  0
 34 30  1  0
 35 28  1  0
 36 32  1  0
 37 36  2  0
 38 35  1  0
 39 34  1  0
 40 33  1  0
 41 39  1  0
  4  5  1  0
 23 18  1  0
 31 37  1  0
 40 41  1  0
  8 10  2  0
M  END
>  <From>  (1) 
www.bindingDB.org

>  <BindingDB Reactant_set_id>  (1) 
50473181

>  <Ligand InChI>  (1) 
InChI=1S/C30H36N8O3/c1-2-8-24-19-27(39)37(18-17-31-29(40)32-23-9-4-3-5-10-23)30(41)38(24)20-21-13-15-22(16-14-21)25-11-6-7-12-26(25)28-33-35-36-34-28/h6-7,11-16,19,23H,2-5,8-10,17-18,20H2,1H3,(H2,31,32,40)(H,33,34,35,36)

>  <Ligand InChI Key>  (1) 
RBDAOGSSQXGWTC-UHFFFAOYSA-N

>  <BindingDB MonomerID>  (1) 
50285164

>  <BindingDB Ligand Name>  (1) 
1-Cyclohexyl-3-(2-{2,6-dioxo-4-propyl-3-[2'-(1H-tetrazol-5-yl)-biphenyl-4-ylmethyl]-3,6-dihydro-2H-pyrimidin-1-yl}-ethyl)-urea::CHEMBL416507

>  <Target Name>  (1) 
Type-1 angiotensin II receptor B

>  <Target Source Organism According to Curator or DataSource>  (1) 
Rattus

>  <Ki (nM)>  (1) 


>  <IC50 (nM)>  (1) 
 1.4

>  <Kd (nM)>  (1) 


>  <EC50 (nM)>  (1) 


>  <kon (M-1-s-1)>  (1) 


>  <koff (s-1)>  (1) 


>  <pH>  (1) 


>  <Temp C>  (1) 


>  <Curation/DataSource>  (1) 
ChEMBL

>  <Article DOI>  (1) 
10.1016/0960-894X(95)00370-9

>  <BindingDB Entry DOI>  (1) 
10.7270/Q2SF2W4J

>  <PMID>  (1) 


>  <PubChem AID>  (1) 


>  <Patent Number>  (1) 


>  <Authors>  (1) 
Dorsch, D; Mederski, WW; Osswald, M; Beier, N; Schelling, P

>  <Institution>  (1) 
TBA

>  <Link to Ligand in BindingDB>  (1) 
http://www.bindingdb.org/bind/chemsearch/marvin/MolStructure.jsp?monomerid=50285164

>  <Link to Ligand-Target Pair in BindingDB>  (1) 
http://www.bindingdb.org/jsp/dbsearch/PrimarySearch_ki.jsp?energyterm=kJ/mole&tag=r21&monomerid=50285164&enzyme=Type-1+angiotensin+II+receptor+B&column=ki&startPg=0&Increment=50&submit=Search

>  <Ligand HET ID in PDB>  (1) 


>  <PDB ID(s) for Ligand-Target Complex>  (1) 


>  <PubChem CID of Ligand>  (1) 
44305410

>  <PubChem SID of Ligand>  (1) 
104126735

>  <ChEBI ID of Ligand>  (1) 


>  <ChEMBL ID of Ligand>  (1) 
CHEMBL416507

>  <DrugBank ID of Ligand>  (1) 


>  <IUPHAR_GRAC ID of Ligand>  (1) 


>  <KEGG ID of Ligand>  (1) 


>  <ZINC ID of Ligand>  (1) 
ZINC26172087

>  <Number of Protein Chains in Target (bigger than 1 implies a multichain complex)>  (1) 
1

>  <BindingDB Target Chain Sequence>  (1) 
MTLNSSTEDGIKRIQDDCPKAGRHNYIFVMIPTLYSIIFVVGIFGNSLVVIVIYFYMKLKTVASVFLLNLALADLCFLLTLPLWAVYTAMEYRWPFGNHLCKIASASVSFNLYASVFLLTCLSIDRYLAIVHPMKSRLRRTMLVAKVTCIIIWLMAGLASLPAVIYRNVYFIENTNITVCAFHYESQNSTLPIGLGLTKNILGFVFPFLIILTSYTLIWKALKKAYKIQKNTPRNDDIFRIIMAIVLFFFFSWVPHQIFTFLDVLIQLGIIRDCEIADIVDTAMPITICIAYFNNCLNPLFYGFLGKKFKKYFLQLLKYIPPTAKSHAGLSTKMSTLSYRPSDNMSSSAKKSASFFEVE

>  <PDB ID(s) of Target Chain>  (1) 


>  <UniProt (SwissProt) Recommended Name of Target Chain>  (1) 
Type-1 angiotensin II receptor B

>  <UniProt (SwissProt) Entry Name of Target Chain>  (1) 
AGTRB_RAT

>  <UniProt (SwissProt) Primary ID of Target Chain>  (1) 
P29089

>  <UniProt (SwissProt) Secondary ID(s) of Target Chain>  (1) 


>  <UniProt (SwissProt) Alternative ID(s) of Target Chain>  (1) 


>  <UniProt (TrEMBL) Submitted Name of Target Chain>  (1) 


>  <UniProt (TrEMBL) Entry Name of Target Chain>  (1) 


>  <UniProt (TrEMBL) Primary ID of Target Chain>  (1) 


>  <UniProt (TrEMBL) Secondary ID(s) of Target Chain>  (1) 


>  <UniProt (TrEMBL) Alternative ID(s) of Target Chain>  (1) 


$$$$
