
     RDKit          2D

 31 35  0  0  0  0  0  0  0  0999 V2000
    2.2225   -0.9681    0.0000 C   0  0  0  0  0  0  0  0  0  0  0  0
    2.4287    0.5269    0.0000 N   0  0  0  0  0  0  0  0  0  0  0  0
    1.8730   -0.2120    0.0000 N   0  0  0  0  0  0  0  0  0  0  0  0
    3.2020   -0.0573    0.0000 N   0  0  0  0  0  0  0  0  0  0  0  0
    3.0415   -0.8650    0.0000 N   0  0  0  0  0  0  0  0  0  0  0  0
    1.8101   -1.6840    0.0000 C   0  0  0  0  0  0  0  0  0  0  0  0
   -2.5546    1.8558    0.0000 N   0  0  0  0  0  0  0  0  0  0  0  0
   -2.5374    0.2062    0.0000 C   0  0  0  0  0  0  0  0  0  0  0  0
    1.0998   -2.0850    0.0000 C   0  0  0  0  0  0  0  0  0  0  0  0
   -1.8329    0.6300    0.0000 C   0  0  0  0  0  0  0  0  0  0  0  0
   -1.8329    1.4548    0.0000 C   0  0  0  0  0  0  0  0  0  0  0  0
   -3.2591    0.6128    0.0000 C   0  0  0  0  0  0  0  0  0  0  0  0
   -3.2591    1.4434    0.0000 C   0  0  0  0  0  0  0  0  0  0  0  0
    0.3838   -1.6668    0.0000 C   0  0  0  0  0  0  0  0  0  0  0  0
   -2.5374   -0.6186    0.0000 O   0  0  0  0  0  0  0  0  0  0  0  0
   -0.3265   -2.0678    0.0000 C   0  0  0  0  0  0  0  0  0  0  0  0
    0.4010   -0.8420    0.0000 C   0  0  0  0  0  0  0  0  0  0  0  0
   -1.7298   -0.4010    0.0000 C   0  0  0  0  0  0  0  0  0  0  0  0
   -1.0253   -0.8248    0.0000 C   0  0  0  0  0  0  0  0  0  0  0  0
   -1.0424   -1.6496    0.0000 C   0  0  0  0  0  0  0  0  0  0  0  0
   -0.3093   -0.4182    0.0000 C   0  0  0  0  0  0  0  0  0  0  0  0
    2.5260   -2.1022    0.0000 C   0  0  0  0  0  0  0  0  0  0  0  0
    1.0884   -2.9098    0.0000 C   0  0  0  0  0  0  0  0  0  0  0  0
   -1.1112    0.2176    0.0000 C   0  0  0  0  0  0  0  0  0  0  0  0
   -1.1284    1.8673    0.0000 C   0  0  0  0  0  0  0  0  0  0  0  0
   -3.9809    1.8501    0.0000 C   0  0  0  0  0  0  0  0  0  0  0  0
   -3.9809    2.6749    0.0000 C   0  0  0  0  0  0  0  0  0  0  0  0
    1.7929   -3.3337    0.0000 C   0  0  0  0  0  0  0  0  0  0  0  0
    2.5146   -2.9270    0.0000 C   0  0  0  0  0  0  0  0  0  0  0  0
   -0.4066    0.6300    0.0000 C   0  0  0  0  0  0  0  0  0  0  0  0
   -0.4066    1.4548    0.0000 C   0  0  0  0  0  0  0  0  0  0  0  0
  2  3  1  0
  3  1  1  0
  4  5  1  0
  5  1  2  0
  6  1  1  0
  7 13  2  0
  8 15  1  0
  9  6  1  0
 10  8  1  0
 11 10  2  0
 12  8  2  0
 13 12  1  0
 14  9  1  0
 15 18  1  0
 16 14  2  0
 17 14  1  0
 18 19  1  0
 19 21  1  0
 20 16  1  0
 21 17  2  0
 22  6  2  0
 23  9  2  0
 24 10  1  0
 25 11  1  0
 26 13  1  0
 27 26  1  0
 28 29  2  0
 29 22  1  0
 30 24  2  0
 31 30  1  0
  2  4  2  0
 28 23  1  0
 20 19  2  0
  7 11  1  0
 25 31  2  0
M  END
>  <From>  (1) 
www.bindingDB.org

>  <BindingDB Reactant_set_id>  (1) 
50035233

>  <Ligand InChI>  (1) 
InChI=1S/C25H21N5O/c1-2-19-15-24(22-9-5-6-10-23(22)26-19)31-16-17-11-13-18(14-12-17)20-7-3-4-8-21(20)25-27-29-30-28-25/h3-15H,2,16H2,1H3,(H,27,28,29,30)

>  <Ligand InChI Key>  (1) 
FSJCYXPMWQPVOS-UHFFFAOYSA-N

>  <BindingDB MonomerID>  (1) 
50003387

>  <BindingDB Ligand Name>  (1) 
2-Ethyl-4-[2'-(1H-tetrazol-5-yl)-biphenyl-4-ylmethoxy]-quinoline::2-Ethyl-4-[2'-(2H-tetrazol-5-yl)-biphenyl-4-ylmethoxy]-quinoline::CHEMBL284536::ZD-8731

>  <Target Name>  (1) 
Type-1 angiotensin II receptor

>  <Target Source Organism According to Curator or DataSource>  (1) 
Cavia porcellus

>  <Ki (nM)>  (1) 


>  <IC50 (nM)>  (1) 
 31

>  <Kd (nM)>  (1) 


>  <EC50 (nM)>  (1) 


>  <kon (M-1-s-1)>  (1) 


>  <koff (s-1)>  (1) 


>  <pH>  (1) 


>  <Temp C>  (1) 


>  <Curation/DataSource>  (1) 
ChEMBL

>  <Article DOI>  (1) 
10.1021/jm00061a016

>  <BindingDB Entry DOI>  (1) 
10.7270/Q2GM86CM

>  <PMID>  (1) 
8487261

>  <PubChem AID>  (1) 


>  <Patent Number>  (1) 


>  <Authors>  (1) 
Bradbury, RH; Allott, CP; Dennis, M; Girdwood, JA; Kenny, PW; Major, JS; Oldham, AA; Ratcliffe, AH; Rivett, JE; Roberts, DA

>  <Institution>  (1) 
Zeneca Pharmaceuticals

>  <Link to Ligand in BindingDB>  (1) 
http://www.bindingdb.org/bind/chemsearch/marvin/MolStructure.jsp?monomerid=50003387

>  <Link to Ligand-Target Pair in BindingDB>  (1) 
http://www.bindingdb.org/jsp/dbsearch/PrimarySearch_ki.jsp?energyterm=kJ/mole&tag=r21&monomerid=50003387&enzyme=Type-1+angiotensin+II+receptor&column=ki&startPg=0&Increment=50&submit=Search

>  <Ligand HET ID in PDB>  (1) 


>  <PDB ID(s) for Ligand-Target Complex>  (1) 


>  <PubChem CID of Ligand>  (1) 
132562

>  <PubChem SID of Ligand>  (1) 
103917360

>  <ChEBI ID of Ligand>  (1) 


>  <ChEMBL ID of Ligand>  (1) 
CHEMBL284536

>  <DrugBank ID of Ligand>  (1) 


>  <IUPHAR_GRAC ID of Ligand>  (1) 


>  <KEGG ID of Ligand>  (1) 


>  <ZINC ID of Ligand>  (1) 
ZINC13728638

>  <Number of Protein Chains in Target (bigger than 1 implies a multichain complex)>  (1) 
1

>  <BindingDB Target Chain Sequence>  (1) 
MILNSSTEDGIKRIQDDCPKAGRHSYIFVMIPTLYSIIFVVGIFGNSLVVIVIYFYMKLKTVASVFLLNLALADICFLLTLPLWAVYTAMEYRWPFGNYLCKIASASVSFNLYASVFLLTCLSIDRYLAIVHPMKSRLRRTMLVAKVTCVIIWLMAGLASLPAVIHRNVFFIENTNITVCAFHYESQNSTLPIGLGLTKNILGFMFPFLIILTSYTLIWKALKKAYEIQKNKPRNDDIFKIIMAIVLFFFFSWVPHQIFTFLDVLIQLGIIHDCKISDIVDTAMPITICIAYFNNCLNPLFYGFLGKKFKKYFLQLLKYIPPKAKSHSTLSTKMSTLSYRPSDNVSSSAKKPVQCFEVE

>  <PDB ID(s) of Target Chain>  (1) 
4ZUD

>  <UniProt (SwissProt) Recommended Name of Target Chain>  (1) 
Type-1 angiotensin II receptor

>  <UniProt (SwissProt) Entry Name of Target Chain>  (1) 
AGTR1_CAVPO

>  <UniProt (SwissProt) Primary ID of Target Chain>  (1) 
Q9WV26

>  <UniProt (SwissProt) Secondary ID(s) of Target Chain>  (1) 


>  <UniProt (SwissProt) Alternative ID(s) of Target Chain>  (1) 


>  <UniProt (TrEMBL) Submitted Name of Target Chain>  (1) 


>  <UniProt (TrEMBL) Entry Name of Target Chain>  (1) 


>  <UniProt (TrEMBL) Primary ID of Target Chain>  (1) 


>  <UniProt (TrEMBL) Secondary ID(s) of Target Chain>  (1) 


>  <UniProt (TrEMBL) Alternative ID(s) of Target Chain>  (1) 


$$$$
