
     RDKit          2D

 32 35  0  0  0  0  0  0  0  0999 V2000
    1.5008   -5.8483    0.0000 N   0  0  0  0  0  0  0  0  0  0  0  0
    1.8273   -5.0922    0.0000 C   0  0  0  0  0  0  0  0  0  0  0  0
    1.2086   -4.5537    0.0000 N   0  0  0  0  0  0  0  0  0  0  0  0
    0.4983   -4.9719    0.0000 N   0  0  0  0  0  0  0  0  0  0  0  0
    0.6759   -5.7795    0.0000 C   0  0  0  0  0  0  0  0  0  0  0  0
    5.1953   -5.0864    0.0000 C   0  0  0  0  0  0  0  0  0  0  0  0
    4.3705   -5.0234    0.0000 N   0  0  0  0  0  0  0  0  0  0  0  0
    4.1814   -4.2158    0.0000 N   0  0  0  0  0  0  0  0  0  0  0  0
    5.5046   -4.3303    0.0000 N   0  0  0  0  0  0  0  0  0  0  0  0
    4.8860   -3.7862    0.0000 N   0  0  0  0  0  0  0  0  0  0  0  0
    5.6249   -5.7909    0.0000 C   0  0  0  0  0  0  0  0  0  0  0  0
    5.2296   -6.5126    0.0000 C   0  0  0  0  0  0  0  0  0  0  0  0
    1.2774   -3.7347    0.0000 C   0  0  0  0  0  0  0  0  0  0  0  0
    1.9304   -6.5700    0.0000 C   0  0  0  0  0  0  0  0  0  0  0  0
    2.6349   -4.9146    0.0000 O   0  0  0  0  0  0  0  0  0  0  0  0
    4.4048   -6.5298    0.0000 C   0  0  0  0  0  0  0  0  0  0  0  0
    3.9866   -5.8253    0.0000 C   0  0  0  0  0  0  0  0  0  0  0  0
    4.0096   -7.2516    0.0000 C   0  0  0  0  0  0  0  0  0  0  0  0
    2.7552   -6.5528    0.0000 C   0  0  0  0  0  0  0  0  0  0  0  0
    0.1375   -6.3981    0.0000 C   0  0  0  0  0  0  0  0  0  0  0  0
    3.1504   -5.8311    0.0000 C   0  0  0  0  0  0  0  0  0  0  0  0
    3.1790   -7.2573    0.0000 C   0  0  0  0  0  0  0  0  0  0  0  0
    6.4497   -5.7623    0.0000 C   0  0  0  0  0  0  0  0  0  0  0  0
    5.6535   -7.2172    0.0000 C   0  0  0  0  0  0  0  0  0  0  0  0
    2.0277   -3.3910    0.0000 C   0  0  0  0  0  0  0  0  0  0  0  0
    0.6072   -3.2535    0.0000 C   0  0  0  0  0  0  0  0  0  0  0  0
    1.4950   -2.9270    0.0000 C   0  0  0  0  0  0  0  0  0  0  0  0
   -0.6702   -6.2435    0.0000 C   0  0  0  0  0  0  0  0  0  0  0  0
   -1.2143   -6.8621    0.0000 C   0  0  0  0  0  0  0  0  0  0  0  0
    6.8793   -6.4783    0.0000 C   0  0  0  0  0  0  0  0  0  0  0  0
    6.4783   -7.2058    0.0000 C   0  0  0  0  0  0  0  0  0  0  0  0
   -2.0219   -6.7017    0.0000 C   0  0  0  0  0  0  0  0  0  0  0  0
  2  1  1  0
  3  2  1  0
  4  5  2  0
  5  1  1  0
  6 11  1  0
  7  6  1  0
  8  7  1  0
  9  6  2  0
 10  9  1  0
 11 12  1  0
 12 16  1  0
 13  3  1  0
 14  1  1  0
 15  2  2  0
 16 18  2  0
 17 21  2  0
 18 22  1  0
 19 14  1  0
 20  5  1  0
 21 19  1  0
 22 19  2  0
 23 11  2  0
 24 12  2  0
 25 13  1  0
 26 13  1  0
 27 13  1  0
 28 20  1  0
 29 28  1  0
 30 31  2  0
 31 24  1  0
 32 29  1  0
  4  3  1  0
 17 16  1  0
 23 30  1  0
  8 10  2  0
M  END
>  <From>  (1) 
www.bindingDB.org

>  <BindingDB Reactant_set_id>  (1) 
50060508

>  <Ligand InChI>  (1) 
InChI=1S/C24H29N7O/c1-5-6-11-21-27-31(24(2,3)4)23(32)30(21)16-17-12-14-18(15-13-17)19-9-7-8-10-20(19)22-25-28-29-26-22/h7-10,12-15H,5-6,11,16H2,1-4H3,(H,25,26,28,29)

>  <Ligand InChI Key>  (1) 
OAQWPJALNVUNJJ-UHFFFAOYSA-N

>  <BindingDB MonomerID>  (1) 
50044512

>  <BindingDB Ligand Name>  (1) 
5-Butyl-2-tert-butyl-4-[2'-(2H-tetrazol-5-yl)-biphenyl-4-ylmethyl]-2,4-dihydro-[1,2,4]triazol-3-one::CHEMBL314436

>  <Target Name>  (1) 
Type-1 angiotensin II receptor

>  <Target Source Organism According to Curator or DataSource>  (1) 
Oryctolagus cuniculus

>  <Ki (nM)>  (1) 


>  <IC50 (nM)>  (1) 
 23

>  <Kd (nM)>  (1) 


>  <EC50 (nM)>  (1) 


>  <kon (M-1-s-1)>  (1) 


>  <koff (s-1)>  (1) 


>  <pH>  (1) 


>  <Temp C>  (1) 


>  <Curation/DataSource>  (1) 
ChEMBL

>  <Article DOI>  (1) 
10.1021/jm00069a015

>  <BindingDB Entry DOI>  (1) 
10.7270/Q2KP817C

>  <PMID>  (1) 
8355255

>  <PubChem AID>  (1) 


>  <Patent Number>  (1) 


>  <Authors>  (1) 
Chang, LL; Ashton, WT; Flanagan, KL; Strelitz, RA; MacCoss, M; Greenlee, WJ; Chang, RS; Lotti, VJ; Faust, KA; Chen, TB

>  <Institution>  (1) 
Merck Research Laboratories

>  <Link to Ligand in BindingDB>  (1) 
http://www.bindingdb.org/bind/chemsearch/marvin/MolStructure.jsp?monomerid=50044512

>  <Link to Ligand-Target Pair in BindingDB>  (1) 
http://www.bindingdb.org/jsp/dbsearch/PrimarySearch_ki.jsp?energyterm=kJ/mole&tag=r21&monomerid=50044512&enzyme=Type-1+angiotensin+II+receptor&column=ki&startPg=0&Increment=50&submit=Search

>  <Ligand HET ID in PDB>  (1) 


>  <PDB ID(s) for Ligand-Target Complex>  (1) 


>  <PubChem CID of Ligand>  (1) 
10113613

>  <PubChem SID of Ligand>  (1) 
103975750

>  <ChEBI ID of Ligand>  (1) 


>  <ChEMBL ID of Ligand>  (1) 
CHEMBL314436

>  <DrugBank ID of Ligand>  (1) 


>  <IUPHAR_GRAC ID of Ligand>  (1) 


>  <KEGG ID of Ligand>  (1) 


>  <ZINC ID of Ligand>  (1) 
ZINC13832673

>  <Number of Protein Chains in Target (bigger than 1 implies a multichain complex)>  (1) 
1

>  <BindingDB Target Chain Sequence>  (1) 
MMLNSSTEDGIKRIQDDCPKAGRHNYIFVMIPTLYSIIFVVGIFGNSLAVIVIYFYMKLKTVASVFLLNLALADLCFLLTLPLWAVYTAMEYRWPFGNYLCKIASASVSFNLYASVFLLTCLSIDRYLAIVHPMKSRLRRTMLVAKVTCIIIWLLAGLASLPAIIHRNVFFIENTNITVCAFHYESQNSTLPIGLGLTKNILGFLFPFLIILTSYTLIWKALKKAYEIQKNKPRNDDIFKIIMAIVLFFFFSWVPHQIFTFLDVLIQLGVIHDCRIADIVDTAMPITICIAYFNNCLNPLFYGFLGKKFKKYFLQLLKYIPPKAKSHSNLSTKMSTLSYRPSDNVSSSSKKPVPCFEVE

>  <PDB ID(s) of Target Chain>  (1) 
6DO1,6OS0,6OS1,6OS2

>  <UniProt (SwissProt) Recommended Name of Target Chain>  (1) 
Type-1 angiotensin II receptor

>  <UniProt (SwissProt) Entry Name of Target Chain>  (1) 
AGTR1_RABIT

>  <UniProt (SwissProt) Primary ID of Target Chain>  (1) 
P34976

>  <UniProt (SwissProt) Secondary ID(s) of Target Chain>  (1) 


>  <UniProt (SwissProt) Alternative ID(s) of Target Chain>  (1) 


>  <UniProt (TrEMBL) Submitted Name of Target Chain>  (1) 


>  <UniProt (TrEMBL) Entry Name of Target Chain>  (1) 


>  <UniProt (TrEMBL) Primary ID of Target Chain>  (1) 


>  <UniProt (TrEMBL) Secondary ID(s) of Target Chain>  (1) 


>  <UniProt (TrEMBL) Alternative ID(s) of Target Chain>  (1) 


$$$$
