
     RDKit          2D

 51 57  0  0  0  0  0  0  0  0999 V2000
    4.1945   -4.7449    0.0000 N   0  0  0  0  0  0  0  0  0  0  0  0
    4.8407   -4.2320    0.0000 C   0  0  0  0  0  0  0  0  0  0  0  0
    4.5447   -3.4565    0.0000 C   0  0  0  0  0  0  0  0  0  0  0  0
    3.7192   -3.5023    0.0000 N   0  0  0  0  0  0  0  0  0  0  0  0
    3.5065   -4.2946    0.0000 C   0  0  0  0  0  0  0  0  0  0  0  0
    7.8094   -5.8081    0.0000 C   0  0  0  0  0  0  0  0  0  0  0  0
    7.3341   -4.5573    0.0000 N   0  0  0  0  0  0  0  0  0  0  0  0
    3.5191    0.1834    0.0000 C   0  0  0  0  0  0  0  0  0  0  0  0
    7.1173   -5.3578    0.0000 N   0  0  0  0  0  0  0  0  0  0  0  0
    8.1555   -4.5197    0.0000 N   0  0  0  0  0  0  0  0  0  0  0  0
    3.8943   -0.5546    0.0000 N   0  0  0  0  0  0  0  0  0  0  0  0
    8.4474   -5.2827    0.0000 N   0  0  0  0  0  0  0  0  0  0  0  0
    5.6330   -4.4447    0.0000 C   0  0  0  0  0  0  0  0  0  0  0  0
    7.8595   -6.6294    0.0000 C   0  0  0  0  0  0  0  0  0  0  0  0
    2.7018    0.2335    0.0000 C   0  0  0  0  0  0  0  0  0  0  0  0
    7.1673   -7.0797    0.0000 C   0  0  0  0  0  0  0  0  0  0  0  0
    4.9950   -2.7686    0.0000 C   0  0  0  0  0  0  0  0  0  0  0  0
    4.6281   -2.0306    0.0000 N   0  0  0  0  0  0  0  0  0  0  0  0
    4.2320   -5.5704    0.0000 C   0  0  0  0  0  0  0  0  0  0  0  0
    6.4335   -6.7045    0.0000 C   0  0  0  0  0  0  0  0  0  0  0  0
    3.9777    0.8714    0.0000 O   0  0  0  0  0  0  0  0  0  0  0  0
    3.4398   -1.2508    0.0000 C   0  0  0  0  0  0  0  0  0  0  0  0
    4.7199   -0.6046    0.0000 C   0  0  0  0  0  0  0  0  0  0  0  0
    5.6330   -4.9950    0.0000 O   0  0  0  0  0  0  0  0  0  0  0  0
    2.3308    0.9715    0.0000 C   0  0  0  0  0  0  0  0  0  0  0  0
    2.2432   -0.4545    0.0000 C   0  0  0  0  0  0  0  0  0  0  0  0
    6.3960   -5.8706    0.0000 C   0  0  0  0  0  0  0  0  0  0  0  0
    5.7413   -7.1465    0.0000 C   0  0  0  0  0  0  0  0  0  0  0  0
    3.8067   -1.9930    0.0000 C   0  0  0  0  0  0  0  0  0  0  0  0
    5.0826   -1.3426    0.0000 C   0  0  0  0  0  0  0  0  0  0  0  0
    4.9700   -5.9457    0.0000 C   0  0  0  0  0  0  0  0  0  0  0  0
    6.2209   -3.8693    0.0000 O   0  0  0  0  0  0  0  0  0  0  0  0
    2.7310   -4.5906    0.0000 C   0  0  0  0  0  0  0  0  0  0  0  0
    5.6580   -5.5037    0.0000 C   0  0  0  0  0  0  0  0  0  0  0  0
    5.0076   -6.7712    0.0000 C   0  0  0  0  0  0  0  0  0  0  0  0
    8.5933   -7.0047    0.0000 C   0  0  0  0  0  0  0  0  0  0  0  0
    7.2090   -7.9053    0.0000 C   0  0  0  0  0  0  0  0  0  0  0  0
    2.7894    1.6511    0.0000 C   0  0  0  0  0  0  0  0  0  0  0  0
    1.5135    1.0090    0.0000 C   0  0  0  0  0  0  0  0  0  0  0  0
    1.4260   -0.4045    0.0000 C   0  0  0  0  0  0  0  0  0  0  0  0
    2.6185   -1.1925    0.0000 C   0  0  0  0  0  0  0  0  0  0  0  0
    2.0931   -4.0694    0.0000 C   0  0  0  0  0  0  0  0  0  0  0  0
    8.6350   -7.8344    0.0000 C   0  0  0  0  0  0  0  0  0  0  0  0
    7.9428   -8.2805    0.0000 C   0  0  0  0  0  0  0  0  0  0  0  0
    1.3259   -4.3571    0.0000 C   0  0  0  0  0  0  0  0  0  0  0  0
    1.1425    1.7470    0.0000 C   0  0  0  0  0  0  0  0  0  0  0  0
    0.9673   -1.0924    0.0000 C   0  0  0  0  0  0  0  0  0  0  0  0
    2.1682   -1.8805    0.0000 C   0  0  0  0  0  0  0  0  0  0  0  0
    2.4183    2.3974    0.0000 C   0  0  0  0  0  0  0  0  0  0  0  0
    1.5928    2.4391    0.0000 C   0  0  0  0  0  0  0  0  0  0  0  0
    1.3384   -1.8304    0.0000 C   0  0  0  0  0  0  0  0  0  0  0  0
  2  1  1  0
  3  2  2  0
  4  5  2  0
  5  1  1  0
  6 14  1  0
  7  9  1  0
  8 11  1  0
  9  6  1  0
 10 12  1  0
 11 23  1  0
 12  6  2  0
 13  2  1  0
 14 16  1  0
 15  8  1  0
 16 20  1  0
 17  3  1  0
 18 17  1  0
 19  1  1  0
 20 28  2  0
 21  8  2  0
 22 29  1  0
 23 30  1  0
 24 13  2  0
 25 15  1  0
 26 15  1  0
 27 34  2  0
 28 35  1  0
 29 18  1  0
 30 18  1  0
 31 19  1  0
 32 13  1  0
 33  5  1  0
 34 31  1  0
 35 31  2  0
 36 14  2  0
 37 16  2  0
 38 25  2  0
 39 25  1  0
 40 26  2  0
 41 26  1  0
 42 33  1  0
 43 44  2  0
 44 37  1  0
 45 42  1  0
 46 39  2  0
 47 40  1  0
 48 41  2  0
 49 38  1  0
 50 46  1  0
 51 48  1  0
  4  3  1  0
 20 27  1  0
 11 22  1  0
 43 36  1  0
  7 10  2  0
 51 47  2  0
 50 49  2  0
M  END
>  <From>  (1) 
www.bindingDB.org

>  <BindingDB Reactant_set_id>  (1) 
50469012

>  <Ligand InChI>  (1) 
InChI=1S/C40H40N8O3/c1-2-11-35-41-34(27-46-22-24-47(25-23-46)39(49)36(30-12-5-3-6-13-30)31-14-7-4-8-15-31)37(40(50)51)48(35)26-28-18-20-29(21-19-28)32-16-9-10-17-33(32)38-42-44-45-43-38/h3-10,12-21,36H,2,11,22-27H2,1H3,(H,50,51)(H,42,43,44,45)

>  <Ligand InChI Key>  (1) 
KZFCMBIWPRAQDF-UHFFFAOYSA-N

>  <BindingDB MonomerID>  (1) 
50283166

>  <BindingDB Ligand Name>  (1) 
5-(4-Diphenylacetyl-piperazin-1-ylmethyl)-2-propyl-3-[2'-(1H-tetrazol-5-yl)-biphenyl-4-ylmethyl]-3H-imidazole-4-carboxylic acid::CHEMBL70638

>  <Target Name>  (1) 
Type-1 angiotensin II receptor

>  <Target Source Organism According to Curator or DataSource>  (1) 
Homo sapiens

>  <Ki (nM)>  (1) 


>  <IC50 (nM)>  (1) 
 10

>  <Kd (nM)>  (1) 


>  <EC50 (nM)>  (1) 


>  <kon (M-1-s-1)>  (1) 


>  <koff (s-1)>  (1) 


>  <pH>  (1) 


>  <Temp C>  (1) 


>  <Curation/DataSource>  (1) 
ChEMBL

>  <Article DOI>  (1) 
10.1016/S0960-894X(00)80076-1

>  <BindingDB Entry DOI>  (1) 
10.7270/Q2JQ110M

>  <PMID>  (1) 


>  <PubChem AID>  (1) 


>  <Patent Number>  (1) 


>  <Authors>  (1) 
Olson, RE; Liu, J; Lalka, GK; VanAtten, MK; Wexler, RR; Chiu, AT; Nguyen, TT; McCall, DE; Wong, PC; Timmermans, PB

>  <Institution>  (1) 
TBA

>  <Link to Ligand in BindingDB>  (1) 
http://www.bindingdb.org/bind/chemsearch/marvin/MolStructure.jsp?monomerid=50283166

>  <Link to Ligand-Target Pair in BindingDB>  (1) 
http://www.bindingdb.org/jsp/dbsearch/PrimarySearch_ki.jsp?energyterm=kJ/mole&tag=r21&monomerid=50283166&enzyme=Type-1+angiotensin+II+receptor&column=ki&startPg=0&Increment=50&submit=Search

>  <Ligand HET ID in PDB>  (1) 


>  <PDB ID(s) for Ligand-Target Complex>  (1) 


>  <PubChem CID of Ligand>  (1) 
44311664

>  <PubChem SID of Ligand>  (1) 
104124840

>  <ChEBI ID of Ligand>  (1) 


>  <ChEMBL ID of Ligand>  (1) 
CHEMBL70638

>  <DrugBank ID of Ligand>  (1) 


>  <IUPHAR_GRAC ID of Ligand>  (1) 


>  <KEGG ID of Ligand>  (1) 


>  <ZINC ID of Ligand>  (1) 
ZINC26295582

>  <Number of Protein Chains in Target (bigger than 1 implies a multichain complex)>  (1) 
1

>  <BindingDB Target Chain Sequence>  (1) 
MILNSSTEDGIKRIQDDCPKAGRHNYIFVMIPTLYSIIFVVGIFGNSLVVIVIYFYMKLKTVASVFLLNLALADLCFLLTLPLWAVYTAMEYRWPFGNYLCKIASASVSFNLYASVFLLTCLSIDRYLAIVHPMKSRLRRTMLVAKVTCIIIWLLAGLASLPAIIHRNVFFIENTNITVCAFHYESQNSTLPIGLGLTKNILGFLFPFLIILTSYTLIWKALKKAYEIQKNKPRNDDIFKIIMAIVLFFFFSWIPHQIFTFLDVLIQLGIIRDCRIADIVDTAMPITICIAYFNNCLNPLFYGFLGKKFKRYFLQLLKYIPPKAKSHSNLSTKMSTLSYRPSDNVSSSTKKPAPCFEVE

>  <PDB ID(s) of Target Chain>  (1) 
6DO1,6OS0,6OS1,6OS2

>  <UniProt (SwissProt) Recommended Name of Target Chain>  (1) 
Type-1 angiotensin II receptor

>  <UniProt (SwissProt) Entry Name of Target Chain>  (1) 
AGTR1_HUMAN

>  <UniProt (SwissProt) Primary ID of Target Chain>  (1) 
P30556

>  <UniProt (SwissProt) Secondary ID(s) of Target Chain>  (1) 
Q13725 Q8TBK4

>  <UniProt (SwissProt) Alternative ID(s) of Target Chain>  (1) 


>  <UniProt (TrEMBL) Submitted Name of Target Chain>  (1) 


>  <UniProt (TrEMBL) Entry Name of Target Chain>  (1) 


>  <UniProt (TrEMBL) Primary ID of Target Chain>  (1) 


>  <UniProt (TrEMBL) Secondary ID(s) of Target Chain>  (1) 


>  <UniProt (TrEMBL) Alternative ID(s) of Target Chain>  (1) 


$$$$
