
     RDKit          2D

 37 41  0  0  0  0  0  0  0  0999 V2000
    6.3788   -4.3204    0.0000 N   0  0  0  0  0  0  0  0  0  0  0  0
    6.6365   -5.1063    0.0000 C   0  0  0  0  0  0  0  0  0  0  0  0
    5.9671   -5.5929    0.0000 C   0  0  0  0  0  0  0  0  0  0  0  0
    5.5554   -4.3204    0.0000 N   0  0  0  0  0  0  0  0  0  0  0  0
    6.5908   -3.5221    0.0000 C   0  0  0  0  0  0  0  0  0  0  0  0
    5.3059   -5.1063    0.0000 C   0  0  0  0  0  0  0  0  0  0  0  0
    9.5473   -7.2021    0.0000 C   0  0  0  0  0  0  0  0  0  0  0  0
    9.1357   -5.9380    0.0000 N   0  0  0  0  0  0  0  0  0  0  0  0
    8.8820   -6.7156    0.0000 N   0  0  0  0  0  0  0  0  0  0  0  0
    9.9590   -5.9297    0.0000 N   0  0  0  0  0  0  0  0  0  0  0  0
   10.2085   -6.7156    0.0000 N   0  0  0  0  0  0  0  0  0  0  0  0
    7.4142   -5.3558    0.0000 C   0  0  0  0  0  0  0  0  0  0  0  0
    9.5556   -8.0212    0.0000 C   0  0  0  0  0  0  0  0  0  0  0  0
    8.8446   -8.4329    0.0000 C   0  0  0  0  0  0  0  0  0  0  0  0
    5.9920   -6.7904    0.0000 C   0  0  0  0  0  0  0  0  0  0  0  0
    7.3892   -3.3058    0.0000 C   0  0  0  0  0  0  0  0  0  0  0  0
    6.0003   -2.9482    0.0000 C   0  0  0  0  0  0  0  0  0  0  0  0
    8.1335   -8.0254    0.0000 C   0  0  0  0  0  0  0  0  0  0  0  0
    7.5721   -6.0170    0.0000 O   0  0  0  0  0  0  0  0  0  0  0  0
    8.1335   -7.1979    0.0000 C   0  0  0  0  0  0  0  0  0  0  0  0
    7.4266   -8.4329    0.0000 C   0  0  0  0  0  0  0  0  0  0  0  0
    6.7031   -7.1979    0.0000 C   0  0  0  0  0  0  0  0  0  0  0  0
    8.0254   -4.8069    0.0000 O   0  0  0  0  0  0  0  0  0  0  0  0
    5.2061   -3.1686    0.0000 Cl  0  0  0  0  0  0  0  0  0  0  0  0
    7.9755   -3.8838    0.0000 Cl  0  0  0  0  0  0  0  0  0  0  0  0
    7.4224   -6.7862    0.0000 C   0  0  0  0  0  0  0  0  0  0  0  0
    6.7114   -8.0254    0.0000 C   0  0  0  0  0  0  0  0  0  0  0  0
    4.5200   -5.3641    0.0000 C   0  0  0  0  0  0  0  0  0  0  0  0
   10.2709   -8.4329    0.0000 C   0  0  0  0  0  0  0  0  0  0  0  0
    8.8446   -9.2604    0.0000 C   0  0  0  0  0  0  0  0  0  0  0  0
    7.0025   -1.9253    0.0000 C   0  0  0  0  0  0  0  0  0  0  0  0
    6.2041   -2.1498    0.0000 C   0  0  0  0  0  0  0  0  0  0  0  0
    7.5971   -2.5074    0.0000 C   0  0  0  0  0  0  0  0  0  0  0  0
    3.9088   -4.8069    0.0000 C   0  0  0  0  0  0  0  0  0  0  0  0
    9.5556   -9.6721    0.0000 C   0  0  0  0  0  0  0  0  0  0  0  0
   10.2709   -9.2604    0.0000 C   0  0  0  0  0  0  0  0  0  0  0  0
    3.1229   -5.0647    0.0000 C   0  0  0  0  0  0  0  0  0  0  0  0
  2  1  1  0
  3  2  2  0
  4  1  1  0
  5  1  1  0
  6  4  2  0
  7 13  1  0
  8  9  1  0
  9  7  1  0
 10 11  1  0
 11  7  2  0
 12  2  1  0
 13 14  1  0
 14 18  1  0
 15  3  1  0
 16  5  2  0
 17  5  1  0
 18 21  2  0
 19 12  2  0
 20 26  2  0
 21 27  1  0
 22 15  1  0
 23 12  1  0
 24 17  1  0
 25 16  1  0
 26 22  1  0
 27 22  2  0
 28  6  1  0
 29 13  2  0
 30 14  2  0
 31 32  1  0
 32 17  2  0
 33 16  1  0
 34 28  1  0
 35 30  1  0
 36 35  2  0
 37 34  1  0
  6  3  1  0
 33 31  2  0
 18 20  1  0
 36 29  1  0
 10  8  2  0
M  END
>  <From>  (1) 
www.bindingDB.org

>  <BindingDB Reactant_set_id>  (1) 
50061779

>  <Ligand InChI>  (1) 
InChI=1S/C27H22Cl2N6O2/c1-2-6-23-20(24(27(36)37)35(32-23)25-21(28)9-5-10-22(25)29)15-16-11-13-17(14-12-16)18-7-3-4-8-19(18)26-30-33-34-31-26/h3-5,7-14H,2,6,15H2,1H3,(H,36,37)(H,30,31,33,34)

>  <Ligand InChI Key>  (1) 
AAEJZGVELWMPGK-UHFFFAOYSA-N

>  <BindingDB MonomerID>  (1) 
50042550

>  <BindingDB Ligand Name>  (1) 
2-(2,6-Dichloro-phenyl)-5-propyl-4-[2'-(1H-tetrazol-5-yl)-biphenyl-4-ylmethyl]-2H-pyrazole-3-carboxylic acid::CHEMBL338740

>  <Target Name>  (1) 
Type-1 angiotensin II receptor

>  <Target Source Organism According to Curator or DataSource>  (1) 
Oryctolagus cuniculus

>  <Ki (nM)>  (1) 


>  <IC50 (nM)>  (1) 
 0.690000

>  <Kd (nM)>  (1) 


>  <EC50 (nM)>  (1) 


>  <kon (M-1-s-1)>  (1) 


>  <koff (s-1)>  (1) 


>  <pH>  (1) 


>  <Temp C>  (1) 


>  <Curation/DataSource>  (1) 
ChEMBL

>  <Article DOI>  (1) 
10.1021/jm00075a014

>  <BindingDB Entry DOI>  (1) 
10.7270/Q25Q4V5H

>  <PMID>  (1) 
8246227

>  <PubChem AID>  (1) 


>  <Patent Number>  (1) 


>  <Authors>  (1) 
Ashton, WT; Hutchins, SM; Greenlee, WJ; Doss, GA; Chang, RS; Lotti, VJ; Faust, KA; Chen, TB; Zingaro, GJ; Kivlighn, SD

>  <Institution>  (1) 
Merck Research Laboratories

>  <Link to Ligand in BindingDB>  (1) 
http://www.bindingdb.org/bind/chemsearch/marvin/MolStructure.jsp?monomerid=50042550

>  <Link to Ligand-Target Pair in BindingDB>  (1) 
http://www.bindingdb.org/jsp/dbsearch/PrimarySearch_ki.jsp?energyterm=kJ/mole&tag=r21&monomerid=50042550&enzyme=Type-1+angiotensin+II+receptor&column=ki&startPg=0&Increment=50&submit=Search

>  <Ligand HET ID in PDB>  (1) 


>  <PDB ID(s) for Ligand-Target Complex>  (1) 


>  <PubChem CID of Ligand>  (1) 
10369813

>  <PubChem SID of Ligand>  (1) 
103974146

>  <ChEBI ID of Ligand>  (1) 


>  <ChEMBL ID of Ligand>  (1) 
CHEMBL338740

>  <DrugBank ID of Ligand>  (1) 


>  <IUPHAR_GRAC ID of Ligand>  (1) 


>  <KEGG ID of Ligand>  (1) 


>  <ZINC ID of Ligand>  (1) 
ZINC01483473

>  <Number of Protein Chains in Target (bigger than 1 implies a multichain complex)>  (1) 
1

>  <BindingDB Target Chain Sequence>  (1) 
MMLNSSTEDGIKRIQDDCPKAGRHNYIFVMIPTLYSIIFVVGIFGNSLAVIVIYFYMKLKTVASVFLLNLALADLCFLLTLPLWAVYTAMEYRWPFGNYLCKIASASVSFNLYASVFLLTCLSIDRYLAIVHPMKSRLRRTMLVAKVTCIIIWLLAGLASLPAIIHRNVFFIENTNITVCAFHYESQNSTLPIGLGLTKNILGFLFPFLIILTSYTLIWKALKKAYEIQKNKPRNDDIFKIIMAIVLFFFFSWVPHQIFTFLDVLIQLGVIHDCRIADIVDTAMPITICIAYFNNCLNPLFYGFLGKKFKKYFLQLLKYIPPKAKSHSNLSTKMSTLSYRPSDNVSSSSKKPVPCFEVE

>  <PDB ID(s) of Target Chain>  (1) 
6DO1,6OS0,6OS1,6OS2

>  <UniProt (SwissProt) Recommended Name of Target Chain>  (1) 
Type-1 angiotensin II receptor

>  <UniProt (SwissProt) Entry Name of Target Chain>  (1) 
AGTR1_RABIT

>  <UniProt (SwissProt) Primary ID of Target Chain>  (1) 
P34976

>  <UniProt (SwissProt) Secondary ID(s) of Target Chain>  (1) 


>  <UniProt (SwissProt) Alternative ID(s) of Target Chain>  (1) 


>  <UniProt (TrEMBL) Submitted Name of Target Chain>  (1) 


>  <UniProt (TrEMBL) Entry Name of Target Chain>  (1) 


>  <UniProt (TrEMBL) Primary ID of Target Chain>  (1) 


>  <UniProt (TrEMBL) Secondary ID(s) of Target Chain>  (1) 


>  <UniProt (TrEMBL) Alternative ID(s) of Target Chain>  (1) 


$$$$
