
     RDKit          2D

 40 42  0  0  0  0  0  0  0  0999 V2000
    4.3167   -2.0417    0.0000 S   0  0  0  0  0  0  0  0  0  0  0  0
    0.7542   -0.8125    0.0000 N   0  0  0  0  0  0  0  0  0  0  0  0
    1.4250   -0.3250    0.0000 C   0  0  0  0  0  0  0  0  0  0  0  0
    0.3417    0.4625    0.0000 N   0  0  0  0  0  0  0  0  0  0  0  0
    1.1625    0.4708    0.0000 C   0  0  0  0  0  0  0  0  0  0  0  0
    0.0917   -0.3167    0.0000 C   0  0  0  0  0  0  0  0  0  0  0  0
    4.3042   -1.2167    0.0000 N   0  0  0  0  0  0  0  0  0  0  0  0
    4.3250   -2.8667    0.0000 C   0  0  0  0  0  0  0  0  0  0  0  0
    0.7542   -1.6375    0.0000 C   0  0  0  0  0  0  0  0  0  0  0  0
    2.2500   -0.3250    0.0000 C   0  0  0  0  0  0  0  0  0  0  0  0
    5.0167   -0.8000    0.0000 C   0  0  0  0  0  0  0  0  0  0  0  0
    1.4667   -2.0500    0.0000 C   0  0  0  0  0  0  0  0  0  0  0  0
    3.6125   -3.2875    0.0000 C   0  0  0  0  0  0  0  0  0  0  0  0
    2.9000   -2.8750    0.0000 C   0  0  0  0  0  0  0  0  0  0  0  0
    1.4667   -2.8750    0.0000 C   0  0  0  0  0  0  0  0  0  0  0  0
    5.1417   -2.0417    0.0000 O   0  0  0  0  0  0  0  0  0  0  0  0
    3.4917   -2.0542    0.0000 O   0  0  0  0  0  0  0  0  0  0  0  0
    2.1792   -3.2875    0.0000 C   0  0  0  0  0  0  0  0  0  0  0  0
    2.1792   -1.6292    0.0000 C   0  0  0  0  0  0  0  0  0  0  0  0
    5.7375   -1.2000    0.0000 O   0  0  0  0  0  0  0  0  0  0  0  0
    2.9000   -2.0417    0.0000 C   0  0  0  0  0  0  0  0  0  0  0  0
    2.6625   -1.0375    0.0000 O   0  0  0  0  0  0  0  0  0  0  0  0
    5.0042    0.0250    0.0000 O   0  0  0  0  0  0  0  0  0  0  0  0
    0.7542   -3.2875    0.0000 F   0  0  0  0  0  0  0  0  0  0  0  0
    1.6417    1.1458    0.0000 C   0  0  0  0  0  0  0  0  0  0  0  0
    2.6542    0.3958    0.0000 O   0  0  0  0  0  0  0  0  0  0  0  0
   -0.6958   -0.5750    0.0000 C   0  0  0  0  0  0  0  0  0  0  0  0
    5.0375   -3.2792    0.0000 C   0  0  0  0  0  0  0  0  0  0  0  0
    5.7167    0.4458    0.0000 C   0  0  0  0  0  0  0  0  0  0  0  0
    3.6125   -4.1125    0.0000 C   0  0  0  0  0  0  0  0  0  0  0  0
    5.7042    1.2708    0.0000 C   0  0  0  0  0  0  0  0  0  0  0  0
    6.4125    1.6958    0.0000 C   0  0  0  0  0  0  0  0  0  0  0  0
    3.4792    0.3958    0.0000 C   0  0  0  0  0  0  0  0  0  0  0  0
   -1.3083   -0.0167    0.0000 C   0  0  0  0  0  0  0  0  0  0  0  0
    1.3000    1.8958    0.0000 C   0  0  0  0  0  0  0  0  0  0  0  0
    5.0417   -4.1042    0.0000 C   0  0  0  0  0  0  0  0  0  0  0  0
    4.3292   -4.5167    0.0000 C   0  0  0  0  0  0  0  0  0  0  0  0
    6.4042    2.5208    0.0000 C   0  0  0  0  0  0  0  0  0  0  0  0
    7.1292    1.2875    0.0000 C   0  0  0  0  0  0  0  0  0  0  0  0
   -2.0875   -0.2750    0.0000 C   0  0  0  0  0  0  0  0  0  0  0  0
  2  9  1  0
  3  2  1  0
  4  6  2  0
  5  3  2  0
  6  2  1  0
  7  1  1  0
  8  1  1  0
  9 12  1  0
 10  3  1  0
 11  7  1  0
 12 19  2  0
 13  8  2  0
 14 13  1  0
 15 18  2  0
 16  1  2  0
 17  1  2  0
 18 14  1  0
 19 21  1  0
 20 11  2  0
 21 14  2  0
 22 10  2  0
 23 11  1  0
 24 15  1  0
 25  5  1  0
 26 10  1  0
 27  6  1  0
 28  8  1  0
 29 23  1  0
 30 13  1  0
 31 29  1  0
 32 31  1  0
 33 26  1  0
 34 27  1  0
 35 25  1  0
 36 28  2  0
 37 36  1  0
 38 32  1  0
 39 32  1  0
 40 34  1  0
 37 30  2  0
 15 12  1  0
  4  5  1  0
M  END
>  <From>  (1) 
www.bindingDB.org

>  <BindingDB Reactant_set_id>  (1) 
50779290

>  <Ligand InChI>  (1) 
InChI=1S/C29H36FN3O6S/c1-6-10-26-31-24(7-2)27(28(34)38-5)33(26)18-21-14-13-20(17-23(21)30)22-11-8-9-12-25(22)40(36,37)32-29(35)39-16-15-19(3)4/h8-9,11-14,17,19H,6-7,10,15-16,18H2,1-5H3,(H,32,35)

>  <Ligand InChI Key>  (1) 
PZLBCNBODYEVNF-UHFFFAOYSA-N

>  <BindingDB MonomerID>  (1) 
50032362

>  <BindingDB Ligand Name>  (1) 
3-(2'-Isopentyloxycarbonylsulfamoyl-3-fluoro-biphenyl-4-ylmethyl)-5-ethyl-2-propyl-3H-imidazole-4-carboxylic acid methyl ester::5-Ethyl-3-(3-fluoro-2'-isopentyloxycarbonylsulfamoyl-biphenyl-4-ylmethyl)-2-propyl-3H-imidazole-4-carboxylic acid methyl ester(EXP408)::CHEMBL294512::isopentyloxy 2-{2-[3-flouoro-4-(4-ethyl-5-methyloxycarbonyl-2-propyl-1H-1-imidazolylmethyl)phenyl]phenylsulfonyl}carbonylamino

>  <Target Name>  (1) 
Type-1 angiotensin II receptor

>  <Target Source Organism According to Curator or DataSource>  (1) 
Homo sapiens

>  <Ki (nM)>  (1) 


>  <IC50 (nM)>  (1) 
 1

>  <Kd (nM)>  (1) 


>  <EC50 (nM)>  (1) 


>  <kon (M-1-s-1)>  (1) 


>  <koff (s-1)>  (1) 


>  <pH>  (1) 


>  <Temp C>  (1) 


>  <Curation/DataSource>  (1) 
ChEMBL

>  <Article DOI>  (1) 
10.1021/jm9504722

>  <BindingDB Entry DOI>  (1) 
10.7270/Q29P3299

>  <PMID>  (1) 
8576904

>  <PubChem AID>  (1) 


>  <Patent Number>  (1) 


>  <Authors>  (1) 
Wexler, RR; Greenlee, WJ; Irvin, JD; Goldberg, MR; Prendergast, K; Smith, RD; Timmermans, PB

>  <Institution>  (1) 
DuPont Pharmaceuticals Company

>  <Link to Ligand in BindingDB>  (1) 
http://www.bindingdb.org/bind/chemsearch/marvin/MolStructure.jsp?monomerid=50032362

>  <Link to Ligand-Target Pair in BindingDB>  (1) 
http://www.bindingdb.org/jsp/dbsearch/PrimarySearch_ki.jsp?energyterm=kJ/mole&tag=r21&monomerid=50032362&enzyme=Type-1+angiotensin+II+receptor&column=ki&startPg=0&Increment=50&submit=Search

>  <Ligand HET ID in PDB>  (1) 


>  <PDB ID(s) for Ligand-Target Complex>  (1) 


>  <PubChem CID of Ligand>  (1) 
9851082

>  <PubChem SID of Ligand>  (1) 
103940892

>  <ChEBI ID of Ligand>  (1) 


>  <ChEMBL ID of Ligand>  (1) 
CHEMBL294512

>  <DrugBank ID of Ligand>  (1) 


>  <IUPHAR_GRAC ID of Ligand>  (1) 


>  <KEGG ID of Ligand>  (1) 


>  <ZINC ID of Ligand>  (1) 
ZINC03944635

>  <Number of Protein Chains in Target (bigger than 1 implies a multichain complex)>  (1) 
1

>  <BindingDB Target Chain Sequence>  (1) 
MILNSSTEDGIKRIQDDCPKAGRHNYIFVMIPTLYSIIFVVGIFGNSLVVIVIYFYMKLKTVASVFLLNLALADLCFLLTLPLWAVYTAMEYRWPFGNYLCKIASASVSFNLYASVFLLTCLSIDRYLAIVHPMKSRLRRTMLVAKVTCIIIWLLAGLASLPAIIHRNVFFIENTNITVCAFHYESQNSTLPIGLGLTKNILGFLFPFLIILTSYTLIWKALKKAYEIQKNKPRNDDIFKIIMAIVLFFFFSWIPHQIFTFLDVLIQLGIIRDCRIADIVDTAMPITICIAYFNNCLNPLFYGFLGKKFKRYFLQLLKYIPPKAKSHSNLSTKMSTLSYRPSDNVSSSTKKPAPCFEVE

>  <PDB ID(s) of Target Chain>  (1) 
6DO1,6OS0,6OS1,6OS2

>  <UniProt (SwissProt) Recommended Name of Target Chain>  (1) 
Type-1 angiotensin II receptor

>  <UniProt (SwissProt) Entry Name of Target Chain>  (1) 
AGTR1_HUMAN

>  <UniProt (SwissProt) Primary ID of Target Chain>  (1) 
P30556

>  <UniProt (SwissProt) Secondary ID(s) of Target Chain>  (1) 
Q13725 Q8TBK4

>  <UniProt (SwissProt) Alternative ID(s) of Target Chain>  (1) 


>  <UniProt (TrEMBL) Submitted Name of Target Chain>  (1) 


>  <UniProt (TrEMBL) Entry Name of Target Chain>  (1) 


>  <UniProt (TrEMBL) Primary ID of Target Chain>  (1) 


>  <UniProt (TrEMBL) Secondary ID(s) of Target Chain>  (1) 


>  <UniProt (TrEMBL) Alternative ID(s) of Target Chain>  (1) 


$$$$
