
     RDKit          2D

 39 42  0  0  0  0  0  0  0  0999 V2000
    3.7382   -3.1977    0.0000 N   0  0  0  0  0  0  0  0  0  0  0  0
    3.4822   -2.4068    0.0000 C   0  0  0  0  0  0  0  0  0  0  0  0
    2.3954   -3.1977    0.0000 N   0  0  0  0  0  0  0  0  0  0  0  0
    2.6515   -2.4125    0.0000 C   0  0  0  0  0  0  0  0  0  0  0  0
    3.0725   -3.6757    0.0000 C   0  0  0  0  0  0  0  0  0  0  0  0
    1.2177   -0.4154    0.0000 C   0  0  0  0  0  0  0  0  0  0  0  0
    1.6956   -1.0811    0.0000 N   0  0  0  0  0  0  0  0  0  0  0  0
    8.0226   -4.4779    0.0000 C   0  0  0  0  0  0  0  0  0  0  0  0
   -0.0796    0.2332    0.0000 C   0  0  0  0  0  0  0  0  0  0  0  0
    0.4097   -0.4154    0.0000 C   0  0  0  0  0  0  0  0  0  0  0  0
    7.6129   -3.7723    0.0000 C   0  0  0  0  0  0  0  0  0  0  0  0
    7.6129   -5.2062    0.0000 C   0  0  0  0  0  0  0  0  0  0  0  0
    4.3186   -3.7723    0.0000 C   0  0  0  0  0  0  0  0  0  0  0  0
    1.8435   -2.4979    0.0000 C   0  0  0  0  0  0  0  0  0  0  0  0
    2.9929   -1.6615    0.0000 C   0  0  0  0  0  0  0  0  0  0  0  0
   -0.8989    0.1366    0.0000 C   0  0  0  0  0  0  0  0  0  0  0  0
    6.7823   -3.7723    0.0000 C   0  0  0  0  0  0  0  0  0  0  0  0
    3.9658   -1.7411    0.0000 O   0  0  0  0  0  0  0  0  0  0  0  0
    1.3655   -1.8322    0.0000 C   0  0  0  0  0  0  0  0  0  0  0  0
    2.5149   -0.9958    0.0000 C   0  0  0  0  0  0  0  0  0  0  0  0
    1.4908    0.3527    0.0000 O   0  0  0  0  0  0  0  0  0  0  0  0
    8.0226   -5.9117    0.0000 O   0  0  0  0  0  0  0  0  0  0  0  0
   -1.3826    0.7965    0.0000 O   0  0  0  0  0  0  0  0  0  0  0  0
    6.3726   -4.4892    0.0000 C   0  0  0  0  0  0  0  0  0  0  0  0
    6.3669   -3.0554    0.0000 C   0  0  0  0  0  0  0  0  0  0  0  0
    0.1594   -1.2347    0.0000 N   0  0  0  0  0  0  0  0  0  0  0  0
    5.1436   -3.7723    0.0000 C   0  0  0  0  0  0  0  0  0  0  0  0
    6.7823   -5.2062    0.0000 O   0  0  0  0  0  0  0  0  0  0  0  0
    3.0612   -4.5063    0.0000 C   0  0  0  0  0  0  0  0  0  0  0  0
   -1.2119   -0.6202    0.0000 O   0  0  0  0  0  0  0  0  0  0  0  0
    5.5475   -3.0554    0.0000 C   0  0  0  0  0  0  0  0  0  0  0  0
    5.5475   -4.4892    0.0000 C   0  0  0  0  0  0  0  0  0  0  0  0
    8.8477   -4.4779    0.0000 C   0  0  0  0  0  0  0  0  0  0  0  0
    8.0113   -3.0554    0.0000 C   0  0  0  0  0  0  0  0  0  0  0  0
    2.3556   -4.9160    0.0000 C   0  0  0  0  0  0  0  0  0  0  0  0
    2.3556   -5.7410    0.0000 C   0  0  0  0  0  0  0  0  0  0  0  0
    9.2573   -3.7610    0.0000 C   0  0  0  0  0  0  0  0  0  0  0  0
    8.8419   -3.0441    0.0000 C   0  0  0  0  0  0  0  0  0  0  0  0
    1.6444   -6.1507    0.0000 C   0  0  0  0  0  0  0  0  0  0  0  0
  2  1  1  0
  3  5  2  0
  4  2  1  0
  5  1  1  0
  6  7  1  0
  7 20  1  0
  8 11  2  0
  9 10  1  0
 10  6  1  0
 11 17  1  0
 12  8  1  0
 13  1  1  0
 14  4  1  0
 15  4  1  0
 16  9  1  0
 17 24  2  0
 18  2  2  0
 19 14  1  0
 20 15  1  0
 21  6  2  0
 22 12  2  0
 23 16  2  0
 24 32  1  0
 25 31  2  0
 26 10  1  0
 27 13  1  0
 28 12  1  0
 29  5  1  0
 30 16  1  0
 31 27  1  0
 32 27  2  0
 33  8  1  0
 34 11  1  0
 35 29  1  0
 36 35  1  0
 37 38  1  0
 38 34  2  0
 39 36  1  0
  3  4  1  0
 17 25  1  0
 19  7  1  0
 33 37  2  0
M  END
>  <From>  (1) 
www.bindingDB.org

>  <BindingDB Reactant_set_id>  (1) 
50067230

>  <Ligand InChI>  (1) 
InChI=1S/C29H34N4O6/c1-2-3-8-24-31-29(13-15-32(16-14-29)26(36)23(30)17-25(34)35)28(39)33(24)18-19-9-11-20(12-10-19)21-6-4-5-7-22(21)27(37)38/h4-7,9-12,23H,2-3,8,13-18,30H2,1H3,(H,34,35)(H,37,38)

>  <Ligand InChI Key>  (1) 
GXGGPGKPZOWIIJ-UHFFFAOYSA-N

>  <BindingDB MonomerID>  (1) 
50042253

>  <BindingDB Ligand Name>  (1) 
4'-[8-(2-Amino-3-carboxy-propionyl)-2-butyl-4-oxo-1,3,8-triaza-spiro[4.5]dec-1-en-3-ylmethyl]-biphenyl-2-carboxylic acid::CHEMBL115204

>  <Target Name>  (1) 
Type-1 angiotensin II receptor B

>  <Target Source Organism According to Curator or DataSource>  (1) 
Rattus

>  <Ki (nM)>  (1) 


>  <IC50 (nM)>  (1) 
 800

>  <Kd (nM)>  (1) 


>  <EC50 (nM)>  (1) 


>  <kon (M-1-s-1)>  (1) 


>  <koff (s-1)>  (1) 


>  <pH>  (1) 


>  <Temp C>  (1) 


>  <Curation/DataSource>  (1) 
ChEMBL

>  <Article DOI>  (1) 
10.1021/jm00074a018

>  <BindingDB Entry DOI>  (1) 
10.7270/Q22Z14M0

>  <PMID>  (1) 
8230127

>  <PubChem AID>  (1) 


>  <Patent Number>  (1) 


>  <Authors>  (1) 
Bernhart, CA; Perreaut, PM; Ferrari, BP; Muneaux, YA; Assens, JL; Clement, J; Haudricourt, F; Muneaux, CF; Taillades, JE; Vignal, MA

>  <Institution>  (1) 
Sanofi Recherche

>  <Link to Ligand in BindingDB>  (1) 
http://www.bindingdb.org/bind/chemsearch/marvin/MolStructure.jsp?monomerid=50042253

>  <Link to Ligand-Target Pair in BindingDB>  (1) 
http://www.bindingdb.org/jsp/dbsearch/PrimarySearch_ki.jsp?energyterm=kJ/mole&tag=r21&monomerid=50042253&enzyme=Type-1+angiotensin+II+receptor+B&column=ki&startPg=0&Increment=50&submit=Search

>  <Ligand HET ID in PDB>  (1) 


>  <PDB ID(s) for Ligand-Target Complex>  (1) 


>  <PubChem CID of Ligand>  (1) 
44341607

>  <PubChem SID of Ligand>  (1) 
103973861

>  <ChEBI ID of Ligand>  (1) 


>  <ChEMBL ID of Ligand>  (1) 
CHEMBL115204

>  <DrugBank ID of Ligand>  (1) 


>  <IUPHAR_GRAC ID of Ligand>  (1) 


>  <KEGG ID of Ligand>  (1) 


>  <ZINC ID of Ligand>  (1) 
ZINC27075082

>  <Number of Protein Chains in Target (bigger than 1 implies a multichain complex)>  (1) 
1

>  <BindingDB Target Chain Sequence>  (1) 
MTLNSSTEDGIKRIQDDCPKAGRHNYIFVMIPTLYSIIFVVGIFGNSLVVIVIYFYMKLKTVASVFLLNLALADLCFLLTLPLWAVYTAMEYRWPFGNHLCKIASASVSFNLYASVFLLTCLSIDRYLAIVHPMKSRLRRTMLVAKVTCIIIWLMAGLASLPAVIYRNVYFIENTNITVCAFHYESQNSTLPIGLGLTKNILGFVFPFLIILTSYTLIWKALKKAYKIQKNTPRNDDIFRIIMAIVLFFFFSWVPHQIFTFLDVLIQLGIIRDCEIADIVDTAMPITICIAYFNNCLNPLFYGFLGKKFKKYFLQLLKYIPPTAKSHAGLSTKMSTLSYRPSDNMSSSAKKSASFFEVE

>  <PDB ID(s) of Target Chain>  (1) 


>  <UniProt (SwissProt) Recommended Name of Target Chain>  (1) 
Type-1 angiotensin II receptor B

>  <UniProt (SwissProt) Entry Name of Target Chain>  (1) 
AGTRB_RAT

>  <UniProt (SwissProt) Primary ID of Target Chain>  (1) 
P29089

>  <UniProt (SwissProt) Secondary ID(s) of Target Chain>  (1) 


>  <UniProt (SwissProt) Alternative ID(s) of Target Chain>  (1) 


>  <UniProt (TrEMBL) Submitted Name of Target Chain>  (1) 


>  <UniProt (TrEMBL) Entry Name of Target Chain>  (1) 


>  <UniProt (TrEMBL) Primary ID of Target Chain>  (1) 


>  <UniProt (TrEMBL) Secondary ID(s) of Target Chain>  (1) 


>  <UniProt (TrEMBL) Alternative ID(s) of Target Chain>  (1) 


$$$$
