0387.cdx
     RDKit          2D

 46 52  0  0  0  0  0  0  0  0999 V2000
   -4.6441   -1.1653    0.0000 C   0  0  0  0  0  0  0  0  0  0  0  0
   -4.6441   -1.9903    0.0000 C   0  0  0  0  0  0  0  0  0  0  0  0
   -3.9296   -2.4028    0.0000 C   0  0  0  0  0  0  0  0  0  0  0  0
   -3.2151   -1.9903    0.0000 C   0  0  0  0  0  0  0  0  0  0  0  0
   -3.2151   -1.1653    0.0000 C   0  0  0  0  0  0  0  0  0  0  0  0
   -3.9296   -0.7528    0.0000 C   0  0  0  0  0  0  0  0  0  0  0  0
   -1.7862   -1.1653    0.0000 C   0  0  0  0  0  0  0  0  0  0  0  0
   -2.5006   -0.7528    0.0000 C   0  0  0  0  0  0  0  0  0  0  0  0
   -1.0717   -0.7528    0.0000 C   0  0  0  0  0  0  0  0  0  0  0  0
   -1.0717    0.0722    0.0000 C   0  0  0  0  0  0  0  0  0  0  0  0
   -1.7862    0.4847    0.0000 C   0  0  0  0  0  0  0  0  0  0  0  0
   -2.5006    0.0722    0.0000 C   0  0  0  0  0  0  0  0  0  0  0  0
   -2.5006   -2.4028    0.0000 C   0  0  0  0  0  0  0  0  0  0  0  0
   -0.3572    0.4847    0.0000 C   0  0  0  0  0  0  0  0  0  0  0  0
   -0.3572    1.3097    0.0000 N   0  0  0  0  0  0  0  0  0  0  0  0
    0.3572    1.7222    0.0000 C   0  0  0  0  0  0  0  0  0  0  0  0
    0.3572    2.5472    0.0000 N   0  0  0  0  0  0  0  0  0  0  0  0
   -0.3572    2.9597    0.0000 C   0  0  0  0  0  0  0  0  0  0  0  0
   -1.0717    2.5472    0.0000 C   0  0  0  0  0  0  0  0  0  0  0  0
   -1.0717    1.7222    0.0000 C   0  0  0  0  0  0  0  0  0  0  0  0
   -1.8563    2.8021    0.0000 C   0  0  0  0  0  0  0  0  0  0  0  0
   -2.3413    2.1347    0.0000 C   0  0  0  0  0  0  0  0  0  0  0  0
   -1.8563    1.4673    0.0000 S   0  0  0  0  0  0  0  0  0  0  0  0
   -3.1663    2.1347    0.0000 C   0  0  0  0  0  0  0  0  0  0  0  0
    1.0717    1.3097    0.0000 O   0  0  0  0  0  0  0  0  0  0  0  0
   -0.3572    3.7847    0.0000 O   0  0  0  0  0  0  0  0  0  0  0  0
   -2.5006   -3.2278    0.0000 N   0  0  0  0  0  0  0  0  0  0  0  0
   -1.7160   -3.4827    0.0000 C   0  0  0  0  0  0  0  0  0  0  0  0
   -1.2311   -2.8153    0.0000 O   0  0  0  0  0  0  0  0  0  0  0  0
   -1.7160   -2.1479    0.0000 N   0  0  0  0  0  0  0  0  0  0  0  0
   -1.3035   -4.1972    0.0000 O   0  0  0  0  0  0  0  0  0  0  0  0
    1.0717    2.9597    0.0000 C   0  0  0  0  0  0  0  0  0  0  0  0
    1.7862    2.5472    0.0000 C   0  0  0  0  0  0  0  0  0  0  0  0
   -3.8807    2.5472    0.0000 C   0  0  0  0  0  0  0  0  0  0  0  0
   -3.8807    1.7222    0.0000 C   0  0  0  0  0  0  0  0  0  0  0  0
    2.5006    2.9597    0.0000 C   0  0  0  0  0  0  0  0  0  0  0  0
    1.7862    1.7222    0.0000 O   0  0  0  0  0  0  0  0  0  0  0  0
    3.2151    2.5472    0.0000 C   0  0  0  0  0  0  0  0  0  0  0  0
    3.9296    2.9597    0.0000 C   0  0  0  0  0  0  0  0  0  0  0  0
    3.9296    3.7847    0.0000 C   0  0  0  0  0  0  0  0  0  0  0  0
    3.2151    4.1972    0.0000 C   0  0  0  0  0  0  0  0  0  0  0  0
    2.5006    3.7847    0.0000 C   0  0  0  0  0  0  0  0  0  0  0  0
    4.6441    4.1972    0.0000 F   0  0  0  0  0  0  0  0  0  0  0  0
    3.2151    1.7222    0.0000 O   0  0  0  0  0  0  0  0  0  0  0  0
    3.9296    1.3097    0.0000 C   0  0  0  0  0  0  0  0  0  0  0  0
   -0.3572   -1.1653    0.0000 F   0  0  0  0  0  0  0  0  0  0  0  0
  1  2  2  0
  2  3  1  0
  3  4  2  0
  4  5  1  0
  5  6  2  0
  6  1  1  0
  4 13  1  0
  7  8  2  0
  8  5  1  0
  7  9  1  0
  9 10  2  0
 10 11  1  0
 11 12  2  0
 12  8  1  0
 10 14  1  0
 14 15  1  0
 15 16  1  0
 16 17  1  0
 17 18  1  0
 18 19  1  0
 19 20  2  0
 20 15  1  0
 19 21  1  0
 21 22  2  0
 22 23  1  0
 23 20  1  0
 22 24  1  0
 16 25  2  0
 18 26  2  0
 13 27  2  0
 27 28  1  0
 28 29  1  0
 29 30  1  0
 30 13  1  0
 28 31  2  0
 17 32  1  0
 32 33  1  0
 24 34  1  0
 34 35  1  0
 35 24  1  0
 33 36  1  0
 33 37  2  0
 36 38  2  0
 38 39  1  0
 39 40  2  0
 40 41  1  0
 41 42  2  0
 42 36  1  0
 40 43  1  0
 38 44  1  0
 44 45  1  0
  9 46  1  0
M  END
>  <From>  (1) 
www.bindingDB.org

>  <BindingDB Reactant_set_id>  (1) 
216957

>  <Ligand InChI>  (1) 
InChI=1S/C33H24F2N4O6S/c1-44-27-13-20(34)10-11-23(27)26(40)16-38-30(41)24-14-28(17-6-7-17)46-31(24)39(33(38)43)15-19-9-8-18(12-25(19)35)21-4-2-3-5-22(21)29-36-32(42)45-37-29/h2-5,8-14,17H,6-7,15-16H2,1H3,(H,36,37,42)

>  <Ligand InChI Key>  (1) 
OTQZRLIQTXWOIP-UHFFFAOYSA-N

>  <BindingDB MonomerID>  (1) 
99959

>  <BindingDB Ligand Name>  (1) 
US8501750, 129

>  <Target Name>  (1) 
Type-1 angiotensin II receptor

>  <Target Source Organism According to Curator or DataSource>  (1) 
Homo sapiens

>  <Ki (nM)>  (1) 


>  <IC50 (nM)>  (1) 
 1.6

>  <Kd (nM)>  (1) 


>  <EC50 (nM)>  (1) 


>  <kon (M-1-s-1)>  (1) 


>  <koff (s-1)>  (1) 


>  <pH>  (1) 


>  <Temp C>  (1) 


>  <Curation/DataSource>  (1) 
US Patent

>  <Article DOI>  (1) 


>  <BindingDB Entry DOI>  (1) 
10.7270/Q2F76B5Q

>  <PMID>  (1) 


>  <PubChem AID>  (1) 
aid1800000

>  <Patent Number>  (1) 
US8501750

>  <Authors>  (1) 
Kuroita, T; Igawa, H; Sakamoto, H; Asano, K; Sasaki, M

>  <Institution>  (1) 
Takeda Pharmaceutical Co., Ltd

>  <Link to Ligand in BindingDB>  (1) 
http://www.bindingdb.org/bind/chemsearch/marvin/MolStructure.jsp?monomerid=99959

>  <Link to Ligand-Target Pair in BindingDB>  (1) 
http://www.bindingdb.org/jsp/dbsearch/PrimarySearch_ki.jsp?energyterm=kJ/mole&tag=r21&monomerid=99959&enzyme=Type-1+angiotensin+II+receptor&column=ki&startPg=0&Increment=50&submit=Search

>  <Ligand HET ID in PDB>  (1) 


>  <PDB ID(s) for Ligand-Target Complex>  (1) 


>  <PubChem CID of Ligand>  (1) 
59351572

>  <PubChem SID of Ligand>  (1) 
164041203

>  <ChEBI ID of Ligand>  (1) 


>  <ChEMBL ID of Ligand>  (1) 


>  <DrugBank ID of Ligand>  (1) 


>  <IUPHAR_GRAC ID of Ligand>  (1) 


>  <KEGG ID of Ligand>  (1) 


>  <ZINC ID of Ligand>  (1) 
ZINC96169971

>  <Number of Protein Chains in Target (bigger than 1 implies a multichain complex)>  (1) 
1

>  <BindingDB Target Chain Sequence>  (1) 
MILNSSTEDGIKRIQDDCPKAGRHNYIFVMIPTLYSIIFVVGIFGNSLVVIVIYFYMKLKTVASVFLLNLALADLCFLLTLPLWAVYTAMEYRWPFGNYLCKIASASVSFNLYASVFLLTCLSIDRYLAIVHPMKSRLRRTMLVAKVTCIIIWLLAGLASLPAIIHRNVFFIENTNITVCAFHYESQNSTLPIGLGLTKNILGFLFPFLIILTSYTLIWKALKKAYEIQKNKPRNDDIFKIIMAIVLFFFFSWIPHQIFTFLDVLIQLGIIRDCRIADIVDTAMPITICIAYFNNCLNPLFYGFLGKKFKRYFLQLLKYIPPKAKSHSNLSTKMSTLSYRPSDNVSSSTKKPAPCFEVE

>  <PDB ID(s) of Target Chain>  (1) 
6DO1,6OS0,6OS1,6OS2

>  <UniProt (SwissProt) Recommended Name of Target Chain>  (1) 
Type-1 angiotensin II receptor

>  <UniProt (SwissProt) Entry Name of Target Chain>  (1) 
AGTR1_HUMAN

>  <UniProt (SwissProt) Primary ID of Target Chain>  (1) 
P30556

>  <UniProt (SwissProt) Secondary ID(s) of Target Chain>  (1) 
Q13725 Q8TBK4

>  <UniProt (SwissProt) Alternative ID(s) of Target Chain>  (1) 


>  <UniProt (TrEMBL) Submitted Name of Target Chain>  (1) 


>  <UniProt (TrEMBL) Entry Name of Target Chain>  (1) 


>  <UniProt (TrEMBL) Primary ID of Target Chain>  (1) 


>  <UniProt (TrEMBL) Secondary ID(s) of Target Chain>  (1) 


>  <UniProt (TrEMBL) Alternative ID(s) of Target Chain>  (1) 


$$$$
