
     RDKit          2D

 37 40  0  0  0  0  0  0  0  0999 V2000
    2.1781   -1.7283    0.0000 S   0  0  0  0  0  0  0  0  0  0  0  0
   -1.5867   -1.6534    0.0000 N   0  0  0  0  0  0  0  0  0  0  0  0
   -2.3738   -1.3993    0.0000 C   0  0  0  0  0  0  0  0  0  0  0  0
   -1.5867   -0.3165    0.0000 N   0  0  0  0  0  0  0  0  0  0  0  0
   -1.0995   -0.9870    0.0000 C   0  0  0  0  0  0  0  0  0  0  0  0
   -2.3738   -0.5747    0.0000 C   0  0  0  0  0  0  0  0  0  0  0  0
    1.9615   -0.9287    0.0000 N   0  0  0  0  0  0  0  0  0  0  0  0
    2.4363   -2.5113    0.0000 C   0  0  0  0  0  0  0  0  0  0  0  0
   -3.0860   -1.8158    0.0000 N   0  0  0  0  0  0  0  0  0  0  0  0
    2.5404   -0.3415    0.0000 C   0  0  0  0  0  0  0  0  0  0  0  0
    1.8866   -3.1235    0.0000 C   0  0  0  0  0  0  0  0  0  0  0  0
   -3.0860   -0.1541    0.0000 C   0  0  0  0  0  0  0  0  0  0  0  0
    1.3785   -1.9407    0.0000 O   0  0  0  0  0  0  0  0  0  0  0  0
    2.9735   -1.5118    0.0000 O   0  0  0  0  0  0  0  0  0  0  0  0
   -1.3326   -2.4405    0.0000 C   0  0  0  0  0  0  0  0  0  0  0  0
    1.0870   -2.9527    0.0000 C   0  0  0  0  0  0  0  0  0  0  0  0
   -3.7981   -1.4035    0.0000 C   0  0  0  0  0  0  0  0  0  0  0  0
   -3.7981   -0.5747    0.0000 C   0  0  0  0  0  0  0  0  0  0  0  0
    3.3650   -0.2916    0.0000 O   0  0  0  0  0  0  0  0  0  0  0  0
    0.8246   -2.1656    0.0000 C   0  0  0  0  0  0  0  0  0  0  0  0
    0.5372   -3.5649    0.0000 C   0  0  0  0  0  0  0  0  0  0  0  0
   -0.5247   -2.6112    0.0000 C   0  0  0  0  0  0  0  0  0  0  0  0
    2.0907    0.3373    0.0000 O   0  0  0  0  0  0  0  0  0  0  0  0
   -0.2749   -0.9870    0.0000 C   0  0  0  0  0  0  0  0  0  0  0  0
   -0.2749   -3.3983    0.0000 C   0  0  0  0  0  0  0  0  0  0  0  0
    0.0250   -1.9990    0.0000 C   0  0  0  0  0  0  0  0  0  0  0  0
    3.2401   -2.6779    0.0000 C   0  0  0  0  0  0  0  0  0  0  0  0
    2.1406   -3.9106    0.0000 C   0  0  0  0  0  0  0  0  0  0  0  0
   -3.0943    0.6622    0.0000 C   0  0  0  0  0  0  0  0  0  0  0  0
   -4.5186   -1.8158    0.0000 C   0  0  0  0  0  0  0  0  0  0  0  0
    2.4530    1.0828    0.0000 C   0  0  0  0  0  0  0  0  0  0  0  0
    0.1374   -0.2749    0.0000 C   0  0  0  0  0  0  0  0  0  0  0  0
    1.9907    1.7699    0.0000 C   0  0  0  0  0  0  0  0  0  0  0  0
    2.3530    2.4863    0.0000 C   0  0  0  0  0  0  0  0  0  0  0  0
    2.9485   -4.0772    0.0000 C   0  0  0  0  0  0  0  0  0  0  0  0
    3.4983   -3.4650    0.0000 C   0  0  0  0  0  0  0  0  0  0  0  0
    1.9033    3.1817    0.0000 C   0  0  0  0  0  0  0  0  0  0  0  0
  2 15  1  0
  3  2  1  0
  4  5  2  0
  5  2  1  0
  6  3  2  0
  7  1  1  0
  8  1  1  0
  9  3  1  0
 10  7  1  0
 11  8  2  0
 12  6  1  0
 13  1  2  0
 14  1  2  0
 15 22  1  0
 16 11  1  0
 17  9  2  0
 18 17  1  0
 19 10  2  0
 20 16  2  0
 21 16  1  0
 22 25  1  0
 23 10  1  0
 24  5  1  0
 25 21  2  0
 26 20  1  0
 27  8  1  0
 28 11  1  0
 29 12  1  0
 30 17  1  0
 31 23  1  0
 32 24  1  0
 33 31  1  0
 34 33  1  0
 35 36  1  0
 36 27  2  0
 37 34  1  0
 35 28  2  0
 26 22  2  0
  4  6  1  0
 12 18  2  0
M  END
>  <From>  (1) 
www.bindingDB.org

>  <BindingDB Reactant_set_id>  (1) 
50006070

>  <Ligand InChI>  (1) 
InChI=1S/C28H32N4O4S/c1-5-7-16-36-28(33)31-37(34,35)24-11-9-8-10-23(24)22-14-12-21(13-15-22)18-32-25(6-2)30-26-19(3)17-20(4)29-27(26)32/h8-15,17H,5-7,16,18H2,1-4H3,(H,31,33)

>  <Ligand InChI Key>  (1) 
GEBJXSAEKUYKLO-UHFFFAOYSA-N

>  <BindingDB MonomerID>  (1) 
50288641

>  <BindingDB Ligand Name>  (1) 
3-[(2'-(butylsulfonylcarbamate)-1,1'-biphenyl-4-yl)methyl]-2-ethyl-5,7-dimethyl-3H-imidazo[4,5-b]pyridine::CHEMBL318605

>  <Target Name>  (1) 
Type-1 angiotensin II receptor

>  <Target Source Organism According to Curator or DataSource>  (1) 
Oryctolagus cuniculus

>  <Ki (nM)>  (1) 


>  <IC50 (nM)>  (1) 
 0.200000

>  <Kd (nM)>  (1) 


>  <EC50 (nM)>  (1) 


>  <kon (M-1-s-1)>  (1) 


>  <koff (s-1)>  (1) 


>  <pH>  (1) 


>  <Temp C>  (1) 


>  <Curation/DataSource>  (1) 
ChEMBL

>  <Article DOI>  (1) 
10.1016/0960-894X(96)00017-0

>  <BindingDB Entry DOI>  (1) 
10.7270/Q25D8RVN

>  <PMID>  (1) 


>  <PubChem AID>  (1) 


>  <Patent Number>  (1) 


>  <Authors>  (1) 
Rivero, RA; Kevin, NJ; Kivlighn, SD; Zingaro, GJ; Chang, RS; Greenlee, WJ

>  <Institution>  (1) 
TBA

>  <Link to Ligand in BindingDB>  (1) 
http://www.bindingdb.org/bind/chemsearch/marvin/MolStructure.jsp?monomerid=50288641

>  <Link to Ligand-Target Pair in BindingDB>  (1) 
http://www.bindingdb.org/jsp/dbsearch/PrimarySearch_ki.jsp?energyterm=kJ/mole&tag=r21&monomerid=50288641&enzyme=Type-1+angiotensin+II+receptor&column=ki&startPg=0&Increment=50&submit=Search

>  <Ligand HET ID in PDB>  (1) 


>  <PDB ID(s) for Ligand-Target Complex>  (1) 


>  <PubChem CID of Ligand>  (1) 
44335530

>  <PubChem SID of Ligand>  (1) 
104130212

>  <ChEBI ID of Ligand>  (1) 


>  <ChEMBL ID of Ligand>  (1) 
CHEMBL318605

>  <DrugBank ID of Ligand>  (1) 


>  <IUPHAR_GRAC ID of Ligand>  (1) 


>  <KEGG ID of Ligand>  (1) 


>  <ZINC ID of Ligand>  (1) 
ZINC26831398

>  <Number of Protein Chains in Target (bigger than 1 implies a multichain complex)>  (1) 
1

>  <BindingDB Target Chain Sequence>  (1) 
MMLNSSTEDGIKRIQDDCPKAGRHNYIFVMIPTLYSIIFVVGIFGNSLAVIVIYFYMKLKTVASVFLLNLALADLCFLLTLPLWAVYTAMEYRWPFGNYLCKIASASVSFNLYASVFLLTCLSIDRYLAIVHPMKSRLRRTMLVAKVTCIIIWLLAGLASLPAIIHRNVFFIENTNITVCAFHYESQNSTLPIGLGLTKNILGFLFPFLIILTSYTLIWKALKKAYEIQKNKPRNDDIFKIIMAIVLFFFFSWVPHQIFTFLDVLIQLGVIHDCRIADIVDTAMPITICIAYFNNCLNPLFYGFLGKKFKKYFLQLLKYIPPKAKSHSNLSTKMSTLSYRPSDNVSSSSKKPVPCFEVE

>  <PDB ID(s) of Target Chain>  (1) 
6DO1,6OS0,6OS1,6OS2

>  <UniProt (SwissProt) Recommended Name of Target Chain>  (1) 
Type-1 angiotensin II receptor

>  <UniProt (SwissProt) Entry Name of Target Chain>  (1) 
AGTR1_RABIT

>  <UniProt (SwissProt) Primary ID of Target Chain>  (1) 
P34976

>  <UniProt (SwissProt) Secondary ID(s) of Target Chain>  (1) 


>  <UniProt (SwissProt) Alternative ID(s) of Target Chain>  (1) 


>  <UniProt (TrEMBL) Submitted Name of Target Chain>  (1) 


>  <UniProt (TrEMBL) Entry Name of Target Chain>  (1) 


>  <UniProt (TrEMBL) Primary ID of Target Chain>  (1) 


>  <UniProt (TrEMBL) Secondary ID(s) of Target Chain>  (1) 


>  <UniProt (TrEMBL) Alternative ID(s) of Target Chain>  (1) 


$$$$
