
     RDKit          2D

 46 50  0  0  0  0  0  0  0  0999 V2000
    4.3042   -3.9042    0.0000 S   0  0  0  0  0  0  0  0  0  0  0  0
    0.7417   -2.6667    0.0000 N   0  0  0  0  0  0  0  0  0  0  0  0
    1.4542   -2.2625    0.0000 C   0  0  0  0  0  0  0  0  0  0  0  0
    1.4542   -1.4375    0.0000 C   0  0  0  0  0  0  0  0  0  0  0  0
    5.1292   -3.9042    0.0000 N   0  0  0  0  0  0  0  0  0  0  0  0
    0.0375   -2.2625    0.0000 C   0  0  0  0  0  0  0  0  0  0  0  0
    0.0375   -1.4375    0.0000 N   0  0  0  0  0  0  0  0  0  0  0  0
    0.7417   -1.0167    0.0000 C   0  0  0  0  0  0  0  0  0  0  0  0
    5.4417   -3.1375    0.0000 C   0  0  0  0  0  0  0  0  0  0  0  0
    4.3125   -4.7292    0.0000 C   0  0  0  0  0  0  0  0  0  0  0  0
    2.9125    1.0208    0.0000 C   0  0  0  0  0  0  0  0  0  0  0  0
    2.1667   -1.0375    0.0000 C   0  0  0  0  0  0  0  0  0  0  0  0
    2.1792   -0.2125    0.0000 C   0  0  0  0  0  0  0  0  0  0  0  0
    6.2625   -3.0292    0.0000 C   0  0  0  0  0  0  0  0  0  0  0  0
    2.9042    0.1958    0.0000 N   0  0  0  0  0  0  0  0  0  0  0  0
    3.6000   -5.1417    0.0000 C   0  0  0  0  0  0  0  0  0  0  0  0
    7.0250   -3.3417    0.0000 C   0  0  0  0  0  0  0  0  0  0  0  0
    6.9167   -2.5167    0.0000 C   0  0  0  0  0  0  0  0  0  0  0  0
    4.3042   -3.0792    0.0000 O   0  0  0  0  0  0  0  0  0  0  0  0
    3.5917   -3.4917    0.0000 O   0  0  0  0  0  0  0  0  0  0  0  0
    0.7417   -3.4917    0.0000 C   0  0  0  0  0  0  0  0  0  0  0  0
    2.1667   -2.6750    0.0000 O   0  0  0  0  0  0  0  0  0  0  0  0
    3.6292    1.4208    0.0000 O   0  0  0  0  0  0  0  0  0  0  0  0
    2.8875   -4.7292    0.0000 C   0  0  0  0  0  0  0  0  0  0  0  0
    2.1917    1.4375    0.0000 O   0  0  0  0  0  0  0  0  0  0  0  0
    4.9417   -2.4875    0.0000 O   0  0  0  0  0  0  0  0  0  0  0  0
    0.7500   -0.1917    0.0000 C   0  0  0  0  0  0  0  0  0  0  0  0
    1.4667    0.2083    0.0000 C   0  0  0  0  0  0  0  0  0  0  0  0
    2.1667   -5.1417    0.0000 C   0  0  0  0  0  0  0  0  0  0  0  0
    2.8792   -3.9042    0.0000 C   0  0  0  0  0  0  0  0  0  0  0  0
    1.4625   -3.9042    0.0000 C   0  0  0  0  0  0  0  0  0  0  0  0
   -0.6833   -2.6750    0.0000 C   0  0  0  0  0  0  0  0  0  0  0  0
    4.3417    1.0000    0.0000 C   0  0  0  0  0  0  0  0  0  0  0  0
    1.4542   -4.7292    0.0000 C   0  0  0  0  0  0  0  0  0  0  0  0
    2.1667   -3.4917    0.0000 C   0  0  0  0  0  0  0  0  0  0  0  0
    5.0250   -5.1375    0.0000 C   0  0  0  0  0  0  0  0  0  0  0  0
    3.6125   -0.2292    0.0000 C   0  0  0  0  0  0  0  0  0  0  0  0
    3.6000   -5.9667    0.0000 C   0  0  0  0  0  0  0  0  0  0  0  0
    5.0542    1.4083    0.0000 C   0  0  0  0  0  0  0  0  0  0  0  0
   -1.3958   -2.2625    0.0000 C   0  0  0  0  0  0  0  0  0  0  0  0
   -2.1083   -2.6750    0.0000 C   0  0  0  0  0  0  0  0  0  0  0  0
    5.7667    0.9875    0.0000 C   0  0  0  0  0  0  0  0  0  0  0  0
    5.0667    2.2333    0.0000 C   0  0  0  0  0  0  0  0  0  0  0  0
    4.3167   -6.3792    0.0000 C   0  0  0  0  0  0  0  0  0  0  0  0
    5.0292   -5.9667    0.0000 C   0  0  0  0  0  0  0  0  0  0  0  0
   -2.8208   -2.2625    0.0000 C   0  0  0  0  0  0  0  0  0  0  0  0
  2 21  1  0
  3  2  1  0
  4  3  1  0
  5  1  1  0
  6  2  1  0
  7  6  2  0
  8  7  1  0
  9  5  1  0
 10  1  1  0
 11 15  1  0
 12  4  2  0
 13 12  1  0
 14  9  1  0
 15 13  1  0
 16 10  1  0
 17 14  1  0
 18 14  1  0
 19  1  2  0
 20  1  2  0
 21 31  1  0
 22  3  2  0
 23 11  1  0
 24 16  1  0
 25 11  2  0
 26  9  2  0
 27  8  2  0
 28 27  1  0
 29 24  2  0
 30 24  1  0
 31 35  1  0
 32  6  1  0
 33 23  1  0
 34 29  1  0
 35 30  2  0
 36 10  2  0
 37 15  1  0
 38 16  2  0
 39 33  1  0
 40 32  1  0
 41 40  1  0
 42 39  1  0
 43 39  1  0
 44 45  2  0
 45 36  1  0
 46 41  1  0
 38 44  1  0
 18 17  1  0
 31 34  2  0
  4  8  1  0
 13 28  2  0
M  END
>  <From>  (1) 
www.bindingDB.org

>  <BindingDB Reactant_set_id>  (1) 
50467673

>  <Ligand InChI>  (1) 
InChI=1S/C35H40N4O6S/c1-5-6-11-32-36-30-19-18-27(38(4)35(42)45-22-23(2)3)20-29(30)34(41)39(32)21-24-12-14-25(15-13-24)28-9-7-8-10-31(28)46(43,44)37-33(40)26-16-17-26/h7-10,12-15,18-20,23,26H,5-6,11,16-17,21-22H2,1-4H3,(H,37,40)

>  <Ligand InChI Key>  (1) 
LABWOBZQQQGAEC-UHFFFAOYSA-N

>  <BindingDB MonomerID>  (1) 
50282439

>  <BindingDB Ligand Name>  (1) 
CHEMBL164769::{2-Butyl-3-[2'-(cyclopropanecarbonyl-sulfamoyl)-biphenyl-4-ylmethyl]-4-oxo-3,4-dihydro-quinazolin-6-yl}-methyl-carbamic acid isobutyl ester

>  <Target Name>  (1) 
Type-1 angiotensin II receptor

>  <Target Source Organism According to Curator or DataSource>  (1) 
Oryctolagus cuniculus

>  <Ki (nM)>  (1) 


>  <IC50 (nM)>  (1) 
 7.4

>  <Kd (nM)>  (1) 


>  <EC50 (nM)>  (1) 


>  <kon (M-1-s-1)>  (1) 


>  <koff (s-1)>  (1) 


>  <pH>  (1) 


>  <Temp C>  (1) 


>  <Curation/DataSource>  (1) 
ChEMBL

>  <Article DOI>  (1) 
10.1016/S0960-894X(01)81125-2

>  <BindingDB Entry DOI>  (1) 
10.7270/Q2J1033H

>  <PMID>  (1) 


>  <PubChem AID>  (1) 


>  <Patent Number>  (1) 


>  <Authors>  (1) 
Chakravarty, PK; Strelitz, RA; Chen, TB; Chang, RS; Lotti, VJ; Zingaro, GJ; Schorn, TW; Kivlighn, SD; Siegel, PK; Patchett, AA; Greenlee, WJ

>  <Institution>  (1) 
TBA

>  <Link to Ligand in BindingDB>  (1) 
http://www.bindingdb.org/bind/chemsearch/marvin/MolStructure.jsp?monomerid=50282439

>  <Link to Ligand-Target Pair in BindingDB>  (1) 
http://www.bindingdb.org/jsp/dbsearch/PrimarySearch_ki.jsp?energyterm=kJ/mole&tag=r21&monomerid=50282439&enzyme=Type-1+angiotensin+II+receptor&column=ki&startPg=0&Increment=50&submit=Search

>  <Ligand HET ID in PDB>  (1) 


>  <PDB ID(s) for Ligand-Target Complex>  (1) 


>  <PubChem CID of Ligand>  (1) 
44379269

>  <PubChem SID of Ligand>  (1) 
104124113

>  <ChEBI ID of Ligand>  (1) 


>  <ChEMBL ID of Ligand>  (1) 
CHEMBL164769

>  <DrugBank ID of Ligand>  (1) 


>  <IUPHAR_GRAC ID of Ligand>  (1) 


>  <KEGG ID of Ligand>  (1) 


>  <ZINC ID of Ligand>  (1) 
ZINC27874299

>  <Number of Protein Chains in Target (bigger than 1 implies a multichain complex)>  (1) 
1

>  <BindingDB Target Chain Sequence>  (1) 
MMLNSSTEDGIKRIQDDCPKAGRHNYIFVMIPTLYSIIFVVGIFGNSLAVIVIYFYMKLKTVASVFLLNLALADLCFLLTLPLWAVYTAMEYRWPFGNYLCKIASASVSFNLYASVFLLTCLSIDRYLAIVHPMKSRLRRTMLVAKVTCIIIWLLAGLASLPAIIHRNVFFIENTNITVCAFHYESQNSTLPIGLGLTKNILGFLFPFLIILTSYTLIWKALKKAYEIQKNKPRNDDIFKIIMAIVLFFFFSWVPHQIFTFLDVLIQLGVIHDCRIADIVDTAMPITICIAYFNNCLNPLFYGFLGKKFKKYFLQLLKYIPPKAKSHSNLSTKMSTLSYRPSDNVSSSSKKPVPCFEVE

>  <PDB ID(s) of Target Chain>  (1) 
6DO1,6OS0,6OS1,6OS2

>  <UniProt (SwissProt) Recommended Name of Target Chain>  (1) 
Type-1 angiotensin II receptor

>  <UniProt (SwissProt) Entry Name of Target Chain>  (1) 
AGTR1_RABIT

>  <UniProt (SwissProt) Primary ID of Target Chain>  (1) 
P34976

>  <UniProt (SwissProt) Secondary ID(s) of Target Chain>  (1) 


>  <UniProt (SwissProt) Alternative ID(s) of Target Chain>  (1) 


>  <UniProt (TrEMBL) Submitted Name of Target Chain>  (1) 


>  <UniProt (TrEMBL) Entry Name of Target Chain>  (1) 


>  <UniProt (TrEMBL) Primary ID of Target Chain>  (1) 


>  <UniProt (TrEMBL) Secondary ID(s) of Target Chain>  (1) 


>  <UniProt (TrEMBL) Alternative ID(s) of Target Chain>  (1) 


$$$$
