
     RDKit          2D

 38 42  0  0  0  0  0  0  0  0999 V2000
   25.5296  -26.9838    0.0000 C   0  0  0  0  0  0  0  0  0  0  0  0
   25.5285  -27.8033    0.0000 C   0  0  0  0  0  0  0  0  0  0  0  0
   26.2365  -28.2123    0.0000 C   0  0  0  0  0  0  0  0  0  0  0  0
   26.9462  -27.8028    0.0000 C   0  0  0  0  0  0  0  0  0  0  0  0
   26.9434  -26.9802    0.0000 C   0  0  0  0  0  0  0  0  0  0  0  0
   26.2347  -26.5749    0.0000 C   0  0  0  0  0  0  0  0  0  0  0  0
   27.6545  -28.2103    0.0000 N   0  0  0  0  0  0  0  0  0  0  0  0
   28.3616  -27.8006    0.0000 C   0  0  0  0  0  0  0  0  0  0  0  0
   29.0699  -28.2081    0.0000 C   0  0  0  0  0  0  0  0  0  0  0  0
   28.3603  -26.9834    0.0000 O   0  0  0  0  0  0  0  0  0  0  0  0
   29.0666  -29.0237    0.0000 C   0  0  0  0  0  0  0  0  0  0  0  0
   29.7741  -29.4312    0.0000 C   0  0  0  0  0  0  0  0  0  0  0  0
   30.4822  -29.0214    0.0000 C   0  0  0  0  0  0  0  0  0  0  0  0
   30.4782  -28.2000    0.0000 C   0  0  0  0  0  0  0  0  0  0  0  0
   29.7702  -27.7963    0.0000 C   0  0  0  0  0  0  0  0  0  0  0  0
   24.8218  -26.5754    0.0000 C   0  0  0  0  0  0  0  0  0  0  0  0
   24.8216  -25.7582    0.0000 N   0  0  0  0  0  0  0  0  0  0  0  0
   25.4884  -25.2789    0.0000 C   0  0  0  0  0  0  0  0  0  0  0  0
   25.2357  -24.5017    0.0000 N   0  0  0  0  0  0  0  0  0  0  0  0
   24.4185  -24.5019    0.0000 N   0  0  0  0  0  0  0  0  0  0  0  0
   24.1663  -25.2792    0.0000 C   0  0  0  0  0  0  0  0  0  0  0  0
   23.3888  -25.5308    0.0000 C   0  0  0  0  0  0  0  0  0  0  0  0
   23.2179  -26.3299    0.0000 C   0  0  0  0  0  0  0  0  0  0  0  0
   23.8245  -26.8775    0.0000 C   0  0  0  0  0  0  0  0  0  0  0  0
   29.7595  -26.9781    0.0000 C   0  0  0  0  0  0  0  0  0  0  0  0
   26.2650  -25.5333    0.0000 N   0  0  0  0  0  0  0  0  0  0  0  0
   26.8736  -24.9880    0.0000 C   0  0  0  0  0  0  0  0  0  0  0  0
   30.4115  -26.4878    0.0000 N   0  0  0  0  0  0  0  0  0  0  0  0
   30.1485  -25.7130    0.0000 N   0  0  0  0  0  0  0  0  0  0  0  0
   29.3303  -25.7236    0.0000 N   0  0  0  0  0  0  0  0  0  0  0  0
   29.0878  -26.5051    0.0000 N   0  0  0  0  0  0  0  0  0  0  0  0
   23.6537  -27.6766    0.0000 C   0  0  0  0  0  0  0  0  0  0  0  0
   26.7057  -24.1882    0.0000 C   0  0  0  0  0  0  0  0  0  0  0  0
   27.3166  -23.6479    0.0000 C   0  0  0  0  0  0  0  0  0  0  0  0
   27.1492  -22.8488    0.0000 C   0  0  0  0  0  0  0  0  0  0  0  0
   26.3719  -22.5937    0.0000 C   0  0  0  0  0  0  0  0  0  0  0  0
   25.7619  -23.1438    0.0000 C   0  0  0  0  0  0  0  0  0  0  0  0
   25.9325  -23.9409    0.0000 C   0  0  0  0  0  0  0  0  0  0  0  0
  1  2  2  0
  2  3  1  0
  3  4  2  0
  4  5  1  0
  5  6  2  0
  6  1  1  0
  4  7  1  0
  7  8  1  0
  8  9  1  0
  8 10  2  0
  9 11  2  0
 11 12  1  0
 12 13  2  0
 13 14  1  0
 14 15  2  0
 15  9  1  0
  1 16  1  0
 16 17  1  0
 17 18  1  0
 18 19  2  0
 19 20  1  0
 20 21  2  0
 21 17  1  0
 21 22  1  0
 22 23  1  0
 23 24  1  0
 15 25  1  0
 18 26  1  0
 26 27  1  0
 25 28  2  0
 28 29  1  0
 29 30  2  0
 30 31  1  0
 31 25  1  0
 24 32  1  0
 27 33  1  0
 33 34  2  0
 34 35  1  0
 35 36  2  0
 36 37  1  0
 37 38  2  0
 38 33  1  0
M  END
>  <From>  (1) 
www.bindingDB.org

>  <BindingDB Reactant_set_id>  (1) 
51183540

>  <Ligand InChI>  (1) 
InChI=1S/C28H29N9O/c1-2-3-13-25-31-34-28(29-18-20-9-5-4-6-10-20)37(25)19-21-14-16-22(17-15-21)30-27(38)24-12-8-7-11-23(24)26-32-35-36-33-26/h4-12,14-17H,2-3,13,18-19H2,1H3,(H,29,34)(H,30,38)(H,32,33,35,36)

>  <Ligand InChI Key>  (1) 
KRPIVSIDVREHGT-UHFFFAOYSA-N

>  <BindingDB MonomerID>  (1) 
50486747

>  <BindingDB Ligand Name>  (1) 
CHEMBL2237610

>  <Target Name>  (1) 
Type-1 angiotensin II receptor

>  <Target Source Organism According to Curator or DataSource>  (1) 
Oryctolagus cuniculus

>  <Ki (nM)>  (1) 


>  <IC50 (nM)>  (1) 
 28

>  <Kd (nM)>  (1) 


>  <EC50 (nM)>  (1) 


>  <kon (M-1-s-1)>  (1) 


>  <koff (s-1)>  (1) 


>  <pH>  (1) 


>  <Temp C>  (1) 


>  <Curation/DataSource>  (1) 
ChEMBL

>  <Article DOI>  (1) 
10.1007/s00044-011-9756-4

>  <BindingDB Entry DOI>  (1) 
10.7270/Q2833VXQ

>  <PMID>  (1) 


>  <PubChem AID>  (1) 


>  <Patent Number>  (1) 


>  <Authors>  (1) 
n/a

>  <Institution>  (1) 
n/a

>  <Link to Ligand in BindingDB>  (1) 
http://www.bindingdb.org/bind/chemsearch/marvin/MolStructure.jsp?monomerid=50486747

>  <Link to Ligand-Target Pair in BindingDB>  (1) 
http://www.bindingdb.org/jsp/dbsearch/PrimarySearch_ki.jsp?energyterm=kJ/mole&tag=r21&monomerid=50486747&enzyme=Type-1+angiotensin+II+receptor&column=ki&startPg=0&Increment=50&submit=Search

>  <Ligand HET ID in PDB>  (1) 


>  <PDB ID(s) for Ligand-Target Complex>  (1) 


>  <PubChem CID of Ligand>  (1) 
76311804

>  <PubChem SID of Ligand>  (1) 
433954012

>  <ChEBI ID of Ligand>  (1) 


>  <ChEMBL ID of Ligand>  (1) 


>  <DrugBank ID of Ligand>  (1) 


>  <IUPHAR_GRAC ID of Ligand>  (1) 


>  <KEGG ID of Ligand>  (1) 


>  <ZINC ID of Ligand>  (1) 


>  <Number of Protein Chains in Target (bigger than 1 implies a multichain complex)>  (1) 
1

>  <BindingDB Target Chain Sequence>  (1) 
MMLNSSTEDGIKRIQDDCPKAGRHNYIFVMIPTLYSIIFVVGIFGNSLAVIVIYFYMKLKTVASVFLLNLALADLCFLLTLPLWAVYTAMEYRWPFGNYLCKIASASVSFNLYASVFLLTCLSIDRYLAIVHPMKSRLRRTMLVAKVTCIIIWLLAGLASLPAIIHRNVFFIENTNITVCAFHYESQNSTLPIGLGLTKNILGFLFPFLIILTSYTLIWKALKKAYEIQKNKPRNDDIFKIIMAIVLFFFFSWVPHQIFTFLDVLIQLGVIHDCRIADIVDTAMPITICIAYFNNCLNPLFYGFLGKKFKKYFLQLLKYIPPKAKSHSNLSTKMSTLSYRPSDNVSSSSKKPVPCFEVE

>  <PDB ID(s) of Target Chain>  (1) 
6DO1,6OS0,6OS1,6OS2

>  <UniProt (SwissProt) Recommended Name of Target Chain>  (1) 
Type-1 angiotensin II receptor

>  <UniProt (SwissProt) Entry Name of Target Chain>  (1) 
AGTR1_RABIT

>  <UniProt (SwissProt) Primary ID of Target Chain>  (1) 
P34976

>  <UniProt (SwissProt) Secondary ID(s) of Target Chain>  (1) 


>  <UniProt (SwissProt) Alternative ID(s) of Target Chain>  (1) 


>  <UniProt (TrEMBL) Submitted Name of Target Chain>  (1) 


>  <UniProt (TrEMBL) Entry Name of Target Chain>  (1) 


>  <UniProt (TrEMBL) Primary ID of Target Chain>  (1) 


>  <UniProt (TrEMBL) Secondary ID(s) of Target Chain>  (1) 


>  <UniProt (TrEMBL) Alternative ID(s) of Target Chain>  (1) 


$$$$
