
     RDKit          2D

 36 39  0  0  0  0  0  0  0  0999 V2000
    5.2292   -5.2417    0.0000 N   0  0  0  0  0  0  0  0  0  0  0  0
    6.0125   -4.9917    0.0000 C   0  0  0  0  0  0  0  0  0  0  0  0
    5.2292   -3.9167    0.0000 N   0  0  0  0  0  0  0  0  0  0  0  0
    4.7500   -4.5792    0.0000 C   0  0  0  0  0  0  0  0  0  0  0  0
    6.0167   -4.1750    0.0000 C   0  0  0  0  0  0  0  0  0  0  0  0
    6.7250   -5.4042    0.0000 N   0  0  0  0  0  0  0  0  0  0  0  0
    8.7667   -8.9792    0.0000 C   0  0  0  0  0  0  0  0  0  0  0  0
    7.3542   -7.3167    0.0000 C   0  0  0  0  0  0  0  0  0  0  0  0
    8.0667   -7.7417    0.0000 O   0  0  0  0  0  0  0  0  0  0  0  0
    8.0625   -8.5667    0.0000 C   0  0  0  0  0  0  0  0  0  0  0  0
    9.4875   -8.5667    0.0000 C   0  0  0  0  0  0  0  0  0  0  0  0
    6.7250   -3.7542    0.0000 C   0  0  0  0  0  0  0  0  0  0  0  0
    5.2250   -6.0667    0.0000 C   0  0  0  0  0  0  0  0  0  0  0  0
    6.6375   -7.7292    0.0000 C   0  0  0  0  0  0  0  0  0  0  0  0
    7.3542   -6.4917    0.0000 C   0  0  0  0  0  0  0  0  0  0  0  0
    5.9292   -6.4875    0.0000 C   0  0  0  0  0  0  0  0  0  0  0  0
    5.9250   -7.3125    0.0000 C   0  0  0  0  0  0  0  0  0  0  0  0
    6.6500   -6.0792    0.0000 C   0  0  0  0  0  0  0  0  0  0  0  0
    7.4417   -4.9917    0.0000 C   0  0  0  0  0  0  0  0  0  0  0  0
    7.4417   -4.1667    0.0000 C   0  0  0  0  0  0  0  0  0  0  0  0
   10.2000   -8.9792    0.0000 O   0  0  0  0  0  0  0  0  0  0  0  0
    9.4875   -7.7417    0.0000 O   0  0  0  0  0  0  0  0  0  0  0  0
    3.9250   -4.5792    0.0000 C   0  0  0  0  0  0  0  0  0  0  0  0
    8.7667   -9.8000    0.0000 C   0  0  0  0  0  0  0  0  0  0  0  0
    6.6292   -8.5542    0.0000 C   0  0  0  0  0  0  0  0  0  0  0  0
    8.0750   -6.0792    0.0000 C   0  0  0  0  0  0  0  0  0  0  0  0
    7.3417   -8.9667    0.0000 C   0  0  0  0  0  0  0  0  0  0  0  0
    6.7167   -2.9292    0.0000 C   0  0  0  0  0  0  0  0  0  0  0  0
    8.1542   -5.4042    0.0000 C   0  0  0  0  0  0  0  0  0  0  0  0
    5.9125   -8.9625    0.0000 C   0  0  0  0  0  0  0  0  0  0  0  0
    8.7875   -6.5000    0.0000 C   0  0  0  0  0  0  0  0  0  0  0  0
    3.5125   -3.8667    0.0000 C   0  0  0  0  0  0  0  0  0  0  0  0
    8.0500  -10.2125    0.0000 C   0  0  0  0  0  0  0  0  0  0  0  0
    7.3375   -9.7917    0.0000 C   0  0  0  0  0  0  0  0  0  0  0  0
    5.9042   -9.7875    0.0000 C   0  0  0  0  0  0  0  0  0  0  0  0
    9.5042   -6.0917    0.0000 C   0  0  0  0  0  0  0  0  0  0  0  0
  2  1  1  0
  3  4  2  0
  4  1  1  0
  5  2  2  0
  6  2  1  0
  7 10  2  0
  8 15  2  0
  9  8  1  0
 10  9  1  0
 11  7  1  0
 12  5  1  0
 13  1  1  0
 14 17  2  0
 15 18  1  0
 16 13  1  0
 17 16  1  0
 18 16  2  0
 19  6  2  0
 20 19  1  0
 21 11  2  0
 22 11  1  0
 23  4  1  0
 24  7  1  0
 25 14  1  0
 26 15  1  0
 27 10  1  0
 28 12  1  0
 29 19  1  0
 30 25  1  0
 31 26  1  0
 32 23  1  0
 33 34  1  0
 34 27  2  0
 35 30  1  0
 36 31  1  0
  3  5  1  0
  8 14  1  0
 12 20  2  0
 33 24  2  0
M  END
>  <From>  (1) 
www.bindingDB.org

>  <BindingDB Reactant_set_id>  (1) 
50002566

>  <Ligand InChI>  (1) 
InChI=1S/C30H35N3O3/c1-6-11-22-16-21(18-33-26(8-3)32-27-19(4)15-20(5)31-29(27)33)17-23(12-7-2)28(22)36-25-14-10-9-13-24(25)30(34)35/h9-10,13-17H,6-8,11-12,18H2,1-5H3,(H,34,35)

>  <Ligand InChI Key>  (1) 
LFNVIDIEXIPKDB-UHFFFAOYSA-N

>  <BindingDB MonomerID>  (1) 
50282338

>  <BindingDB Ligand Name>  (1) 
2-[4-(2-Ethyl-5,7-dimethyl-imidazo[4,5-b]pyridin-3-ylmethyl)-2,6-dipropyl-phenoxy]-benzoic acid::CHEMBL67616

>  <Target Name>  (1) 
Type-1 angiotensin II receptor

>  <Target Source Organism According to Curator or DataSource>  (1) 
Oryctolagus cuniculus

>  <Ki (nM)>  (1) 


>  <IC50 (nM)>  (1) 
 32

>  <Kd (nM)>  (1) 


>  <EC50 (nM)>  (1) 


>  <kon (M-1-s-1)>  (1) 


>  <koff (s-1)>  (1) 


>  <pH>  (1) 


>  <Temp C>  (1) 


>  <Curation/DataSource>  (1) 
ChEMBL

>  <Article DOI>  (1) 
10.1016/S0960-894X(01)81148-3

>  <BindingDB Entry DOI>  (1) 
10.7270/Q2PR7VXH

>  <PMID>  (1) 


>  <PubChem AID>  (1) 


>  <Patent Number>  (1) 


>  <Authors>  (1) 
Kim, D; Mantlo, NB; Tata, JR; Fitch, K; Dhanoa, D; Owens, K; Levorse, D; Siegl, PK; Chang, RS; Chen, T; Scheck, S; Zingaro, GJ; Kivlighn, SD; Greenlee, WJ

>  <Institution>  (1) 
TBA

>  <Link to Ligand in BindingDB>  (1) 
http://www.bindingdb.org/bind/chemsearch/marvin/MolStructure.jsp?monomerid=50282338

>  <Link to Ligand-Target Pair in BindingDB>  (1) 
http://www.bindingdb.org/jsp/dbsearch/PrimarySearch_ki.jsp?energyterm=kJ/mole&tag=r21&monomerid=50282338&enzyme=Type-1+angiotensin+II+receptor&column=ki&startPg=0&Increment=50&submit=Search

>  <Ligand HET ID in PDB>  (1) 


>  <PDB ID(s) for Ligand-Target Complex>  (1) 


>  <PubChem CID of Ligand>  (1) 
44306613

>  <PubChem SID of Ligand>  (1) 
104124012

>  <ChEBI ID of Ligand>  (1) 


>  <ChEMBL ID of Ligand>  (1) 
CHEMBL67616

>  <DrugBank ID of Ligand>  (1) 


>  <IUPHAR_GRAC ID of Ligand>  (1) 


>  <KEGG ID of Ligand>  (1) 


>  <ZINC ID of Ligand>  (1) 
ZINC26255215

>  <Number of Protein Chains in Target (bigger than 1 implies a multichain complex)>  (1) 
1

>  <BindingDB Target Chain Sequence>  (1) 
MMLNSSTEDGIKRIQDDCPKAGRHNYIFVMIPTLYSIIFVVGIFGNSLAVIVIYFYMKLKTVASVFLLNLALADLCFLLTLPLWAVYTAMEYRWPFGNYLCKIASASVSFNLYASVFLLTCLSIDRYLAIVHPMKSRLRRTMLVAKVTCIIIWLLAGLASLPAIIHRNVFFIENTNITVCAFHYESQNSTLPIGLGLTKNILGFLFPFLIILTSYTLIWKALKKAYEIQKNKPRNDDIFKIIMAIVLFFFFSWVPHQIFTFLDVLIQLGVIHDCRIADIVDTAMPITICIAYFNNCLNPLFYGFLGKKFKKYFLQLLKYIPPKAKSHSNLSTKMSTLSYRPSDNVSSSSKKPVPCFEVE

>  <PDB ID(s) of Target Chain>  (1) 
6DO1,6OS0,6OS1,6OS2

>  <UniProt (SwissProt) Recommended Name of Target Chain>  (1) 
Type-1 angiotensin II receptor

>  <UniProt (SwissProt) Entry Name of Target Chain>  (1) 
AGTR1_RABIT

>  <UniProt (SwissProt) Primary ID of Target Chain>  (1) 
P34976

>  <UniProt (SwissProt) Secondary ID(s) of Target Chain>  (1) 


>  <UniProt (SwissProt) Alternative ID(s) of Target Chain>  (1) 


>  <UniProt (TrEMBL) Submitted Name of Target Chain>  (1) 


>  <UniProt (TrEMBL) Entry Name of Target Chain>  (1) 


>  <UniProt (TrEMBL) Primary ID of Target Chain>  (1) 


>  <UniProt (TrEMBL) Secondary ID(s) of Target Chain>  (1) 


>  <UniProt (TrEMBL) Alternative ID(s) of Target Chain>  (1) 


$$$$
