
     RDKit          2D

 41 47  0  0  0  0  0  0  0  0999 V2000
   27.2692  -22.0498    0.0000 C   0  0  0  0  0  0  0  0  0  0  0  0
   27.2679  -22.8771    0.0000 C   0  0  0  0  0  0  0  0  0  0  0  0
   27.9828  -23.2900    0.0000 C   0  0  0  0  0  0  0  0  0  0  0  0
   28.6993  -22.8766    0.0000 C   0  0  0  0  0  0  0  0  0  0  0  0
   28.6964  -22.0462    0.0000 C   0  0  0  0  0  0  0  0  0  0  0  0
   27.9810  -21.6370    0.0000 C   0  0  0  0  0  0  0  0  0  0  0  0
   26.5495  -20.8150    0.0000 C   0  0  0  0  0  0  0  0  0  0  0  0
   27.2659  -20.4016    0.0000 N   0  0  0  0  0  0  0  0  0  0  0  0
   27.2631  -19.5712    0.0000 C   0  0  0  0  0  0  0  0  0  0  0  0
   26.5476  -19.1620    0.0000 C   0  0  0  0  0  0  0  0  0  0  0  0
   25.8347  -20.4021    0.0000 C   0  0  0  0  0  0  0  0  0  0  0  0
   25.8359  -19.5733    0.0000 C   0  0  0  0  0  0  0  0  0  0  0  0
   25.0480  -19.3159    0.0000 N   0  0  0  0  0  0  0  0  0  0  0  0
   24.5596  -19.9858    0.0000 C   0  0  0  0  0  0  0  0  0  0  0  0
   25.0459  -20.6570    0.0000 N   0  0  0  0  0  0  0  0  0  0  0  0
   23.7346  -19.9846    0.0000 C   0  0  0  0  0  0  0  0  0  0  0  0
   23.3232  -19.2695    0.0000 C   0  0  0  0  0  0  0  0  0  0  0  0
   24.7882  -21.4416    0.0000 C   0  0  0  0  0  0  0  0  0  0  0  0
   24.7863  -22.7765    0.0000 C   0  0  0  0  0  0  0  0  0  0  0  0
   25.2721  -22.1097    0.0000 C   0  0  0  0  0  0  0  0  0  0  0  0
   24.0020  -22.5204    0.0000 C   0  0  0  0  0  0  0  0  0  0  0  0
   24.0050  -21.6970    0.0000 C   0  0  0  0  0  0  0  0  0  0  0  0
   23.2946  -21.2844    0.0000 C   0  0  0  0  0  0  0  0  0  0  0  0
   22.5805  -21.6941    0.0000 C   0  0  0  0  0  0  0  0  0  0  0  0
   22.5815  -22.5208    0.0000 C   0  0  0  0  0  0  0  0  0  0  0  0
   23.2926  -22.9295    0.0000 C   0  0  0  0  0  0  0  0  0  0  0  0
   21.8679  -22.9362    0.0000 C   0  0  0  0  0  0  0  0  0  0  0  0
   21.1525  -22.5231    0.0000 C   0  0  0  0  0  0  0  0  0  0  0  0
   20.4392  -22.9359    0.0000 C   0  0  0  0  0  0  0  0  0  0  0  0
   20.4400  -23.7618    0.0000 C   0  0  0  0  0  0  0  0  0  0  0  0
   21.1601  -24.1731    0.0000 C   0  0  0  0  0  0  0  0  0  0  0  0
   21.8705  -23.7579    0.0000 C   0  0  0  0  0  0  0  0  0  0  0  0
   22.5877  -24.1678    0.0000 C   0  0  0  0  0  0  0  0  0  0  0  0
   22.6773  -24.9879    0.0000 N   0  0  0  0  0  0  0  0  0  0  0  0
   23.4851  -25.1561    0.0000 N   0  0  0  0  0  0  0  0  0  0  0  0
   23.8946  -24.4398    0.0000 N   0  0  0  0  0  0  0  0  0  0  0  0
   23.3399  -23.8291    0.0000 N   0  0  0  0  0  0  0  0  0  0  0  0
   26.5493  -21.6400    0.0000 O   0  0  0  0  0  0  0  0  0  0  0  0
   27.9810  -20.8130    0.0000 C   0  0  0  0  0  0  0  0  0  0  0  0
   29.4093  -21.6309    0.0000 C   0  0  0  0  0  0  0  0  0  0  0  0
   30.1199  -21.2146    0.0000 N   0  0  0  0  0  0  0  0  0  0  0  0
  1  2  2  0
  2  3  1  0
  3  4  2  0
  4  5  1  0
  5  6  2  0
  6  1  1  0
 11  7  1  0
  7  8  1  0
  8  9  1  0
  9 10  2  0
 10 12  1  0
 11 12  2  0
 12 13  1  0
 13 14  2  0
 14 15  1  0
 15 11  1  0
 14 16  1  0
 16 17  1  0
 18 22  1  0
 21 19  1  0
 19 20  1  0
 18 20  1  0
 18 15  1  1
 21 22  2  0
 22 23  1  0
 23 24  2  0
 24 25  1  0
 25 26  2  0
 26 21  1  0
 27 28  2  0
 28 29  1  0
 29 30  2  0
 30 31  1  0
 31 32  2  0
 32 27  1  0
 25 27  1  0
 33 34  1  0
 34 35  1  0
 35 36  2  0
 36 37  1  0
 37 33  2  0
 32 33  1  0
  7 38  2  0
  8 39  1  0
 39  6  1  0
  5 40  1  0
 40 41  3  0
M  END
>  <From>  (1) 
www.bindingDB.org

>  <BindingDB Reactant_set_id>  (1) 
51045890

>  <Ligand InChI>  (1) 
InChI=1S/C32H26N8O/c1-2-29-34-27-15-16-39(19-23-8-4-3-7-22(23)18-33)32(41)30(27)40(29)28-14-12-21-17-20(11-13-25(21)28)24-9-5-6-10-26(24)31-35-37-38-36-31/h3-11,13,15-17,28H,2,12,14,19H2,1H3,(H,35,36,37,38)/t28-/m0/s1

>  <Ligand InChI Key>  (1) 
NBDDZFPMRAAKFW-NDEPHWFRSA-N

>  <BindingDB MonomerID>  (1) 
50426787

>  <BindingDB Ligand Name>  (1) 
CHEMBL2322445

>  <Target Name>  (1) 
Type-1 angiotensin II receptor

>  <Target Source Organism According to Curator or DataSource>  (1) 
Homo sapiens

>  <Ki (nM)>  (1) 


>  <IC50 (nM)>  (1) 
 14

>  <Kd (nM)>  (1) 


>  <EC50 (nM)>  (1) 


>  <kon (M-1-s-1)>  (1) 


>  <koff (s-1)>  (1) 


>  <pH>  (1) 


>  <Temp C>  (1) 


>  <Curation/DataSource>  (1) 
ChEMBL

>  <Article DOI>  (1) 
10.1016/j.bmcl.2012.11.088

>  <BindingDB Entry DOI>  (1) 
10.7270/Q2542PW7

>  <PMID>  (1) 
23265881

>  <PubChem AID>  (1) 


>  <Patent Number>  (1) 


>  <Authors>  (1) 
Casimiro-Garcia, A; Heemstra, RJ; Bigge, CF; Chen, J; Ciske, FA; Davis, JA; Ellis, T; Esmaeil, N; Flynn, D; Han, S; Jalaie, M; Ohren, JF; Powell, NA

>  <Institution>  (1) 
Pfizer Inc

>  <Link to Ligand in BindingDB>  (1) 
http://www.bindingdb.org/bind/chemsearch/marvin/MolStructure.jsp?monomerid=50426787

>  <Link to Ligand-Target Pair in BindingDB>  (1) 
http://www.bindingdb.org/jsp/dbsearch/PrimarySearch_ki.jsp?energyterm=kJ/mole&tag=r21&monomerid=50426787&enzyme=Type-1+angiotensin+II+receptor&column=ki&startPg=0&Increment=50&submit=Search

>  <Ligand HET ID in PDB>  (1) 


>  <PDB ID(s) for Ligand-Target Complex>  (1) 


>  <PubChem CID of Ligand>  (1) 
71521416

>  <PubChem SID of Ligand>  (1) 
164155662

>  <ChEBI ID of Ligand>  (1) 


>  <ChEMBL ID of Ligand>  (1) 
CHEMBL2322445

>  <DrugBank ID of Ligand>  (1) 


>  <IUPHAR_GRAC ID of Ligand>  (1) 


>  <KEGG ID of Ligand>  (1) 


>  <ZINC ID of Ligand>  (1) 
ZINC95581923

>  <Number of Protein Chains in Target (bigger than 1 implies a multichain complex)>  (1) 
1

>  <BindingDB Target Chain Sequence>  (1) 
MILNSSTEDGIKRIQDDCPKAGRHNYIFVMIPTLYSIIFVVGIFGNSLVVIVIYFYMKLKTVASVFLLNLALADLCFLLTLPLWAVYTAMEYRWPFGNYLCKIASASVSFNLYASVFLLTCLSIDRYLAIVHPMKSRLRRTMLVAKVTCIIIWLLAGLASLPAIIHRNVFFIENTNITVCAFHYESQNSTLPIGLGLTKNILGFLFPFLIILTSYTLIWKALKKAYEIQKNKPRNDDIFKIIMAIVLFFFFSWIPHQIFTFLDVLIQLGIIRDCRIADIVDTAMPITICIAYFNNCLNPLFYGFLGKKFKRYFLQLLKYIPPKAKSHSNLSTKMSTLSYRPSDNVSSSTKKPAPCFEVE

>  <PDB ID(s) of Target Chain>  (1) 
6DO1,6OS0,6OS1,6OS2

>  <UniProt (SwissProt) Recommended Name of Target Chain>  (1) 
Type-1 angiotensin II receptor

>  <UniProt (SwissProt) Entry Name of Target Chain>  (1) 
AGTR1_HUMAN

>  <UniProt (SwissProt) Primary ID of Target Chain>  (1) 
P30556

>  <UniProt (SwissProt) Secondary ID(s) of Target Chain>  (1) 
Q13725 Q8TBK4

>  <UniProt (SwissProt) Alternative ID(s) of Target Chain>  (1) 


>  <UniProt (TrEMBL) Submitted Name of Target Chain>  (1) 


>  <UniProt (TrEMBL) Entry Name of Target Chain>  (1) 


>  <UniProt (TrEMBL) Primary ID of Target Chain>  (1) 


>  <UniProt (TrEMBL) Secondary ID(s) of Target Chain>  (1) 


>  <UniProt (TrEMBL) Alternative ID(s) of Target Chain>  (1) 


$$$$
