
     RDKit          2D

 36 40  0  0  0  0  0  0  0  0999 V2000
    0.3837    3.3499    0.0000 C   0  0  0  0  0  0  0  0  0  0  0  0
   -0.4065    3.0922    0.0000 N   0  0  0  0  0  0  0  0  0  0  0  0
    0.3837    4.1859    0.0000 C   0  0  0  0  0  0  0  0  0  0  0  0
    1.0880    2.9490    0.0000 C   0  0  0  0  0  0  0  0  0  0  0  0
   -0.4065    4.4436    0.0000 N   0  0  0  0  0  0  0  0  0  0  0  0
   -0.8933    3.7622    0.0000 C   0  0  0  0  0  0  0  0  0  0  0  0
    1.8038    3.3499    0.0000 N   0  0  0  0  0  0  0  0  0  0  0  0
   -2.9318   -0.3494    0.0000 C   0  0  0  0  0  0  0  0  0  0  0  0
   -3.9512    0.5268    0.0000 N   0  0  0  0  0  0  0  0  0  0  0  0
   -3.1266    0.4581    0.0000 N   0  0  0  0  0  0  0  0  0  0  0  0
   -4.2718   -0.2405    0.0000 N   0  0  0  0  0  0  0  0  0  0  0  0
    1.0880    4.5868    0.0000 C   0  0  0  0  0  0  0  0  0  0  0  0
   -3.6419   -0.7788    0.0000 N   0  0  0  0  0  0  0  0  0  0  0  0
    1.8038    4.1859    0.0000 C   0  0  0  0  0  0  0  0  0  0  0  0
   -2.2962   -0.8647    0.0000 C   0  0  0  0  0  0  0  0  0  0  0  0
   -1.5232   -0.5727    0.0000 C   0  0  0  0  0  0  0  0  0  0  0  0
   -1.1280    2.6913    0.0000 C   0  0  0  0  0  0  0  0  0  0  0  0
    2.5139    2.9318    0.0000 C   0  0  0  0  0  0  0  0  0  0  0  0
    3.2354    3.3441    0.0000 C   0  0  0  0  0  0  0  0  0  0  0  0
    1.0880    2.1130    0.0000 O   0  0  0  0  0  0  0  0  0  0  0  0
   -1.3915    0.2405    0.0000 C   0  0  0  0  0  0  0  0  0  0  0  0
    3.2354    4.1687    0.0000 O   0  0  0  0  0  0  0  0  0  0  0  0
   -2.0385    0.7673    0.0000 C   0  0  0  0  0  0  0  0  0  0  0  0
   -0.6184    0.5440    0.0000 C   0  0  0  0  0  0  0  0  0  0  0  0
   -1.1280    1.8667    0.0000 C   0  0  0  0  0  0  0  0  0  0  0  0
   -1.7179    3.7622    0.0000 C   0  0  0  0  0  0  0  0  0  0  0  0
    3.9398    2.9318    0.0000 O   0  0  0  0  0  0  0  0  0  0  0  0
   -1.9011    1.5747    0.0000 C   0  0  0  0  0  0  0  0  0  0  0  0
   -0.4924    1.3514    0.0000 C   0  0  0  0  0  0  0  0  0  0  0  0
   -2.4222   -1.6835    0.0000 C   0  0  0  0  0  0  0  0  0  0  0  0
   -0.8875   -1.0880    0.0000 C   0  0  0  0  0  0  0  0  0  0  0  0
   -2.1302    4.4779    0.0000 C   0  0  0  0  0  0  0  0  0  0  0  0
   -2.9548    4.4779    0.0000 C   0  0  0  0  0  0  0  0  0  0  0  0
   -1.0078   -1.9069    0.0000 C   0  0  0  0  0  0  0  0  0  0  0  0
   -1.7808   -2.2047    0.0000 C   0  0  0  0  0  0  0  0  0  0  0  0
   -3.3671    5.1881    0.0000 C   0  0  0  0  0  0  0  0  0  0  0  0
  2  1  1  0
  3  1  2  0
  4  1  1  0
  5  3  1  0
  6  2  1  0
  7  4  1  0
  8 15  1  0
  9 10  1  0
 10  8  1  0
 11 13  1  0
 12  3  1  0
 13  8  2  0
 14  7  1  0
 15 16  1  0
 16 21  1  0
 17  2  1  0
 18  7  1  0
 19 18  1  0
 20  4  2  0
 21 24  2  0
 22 19  2  0
 23 28  2  0
 24 29  1  0
 25 17  1  0
 26  6  1  0
 27 19  1  0
 28 25  1  0
 29 25  2  0
 30 15  2  0
 31 16  2  0
 32 26  1  0
 33 32  1  0
 34 31  1  0
 35 34  2  0
 36 33  1  0
  6  5  2  0
 14 12  2  0
 21 23  1  0
 35 30  1  0
 11  9  2  0
M  END
>  <From>  (1) 
www.bindingDB.org

>  <BindingDB Reactant_set_id>  (1) 
50066296

>  <Ligand InChI>  (1) 
InChI=1S/C26H25N7O3/c1-2-3-8-22-27-21-13-14-32(16-23(34)35)26(36)24(21)33(22)15-17-9-11-18(12-10-17)19-6-4-5-7-20(19)25-28-30-31-29-25/h4-7,9-14H,2-3,8,15-16H2,1H3,(H,34,35)(H,28,29,30,31)

>  <Ligand InChI Key>  (1) 
MEIWZVPKRQJOOT-UHFFFAOYSA-N

>  <BindingDB MonomerID>  (1) 
50041696

>  <BindingDB Ligand Name>  (1) 
CHEMBL42631::{2-Butyl-4-oxo-3-[2'-(1H-tetrazol-5-yl)-biphenyl-4-ylmethyl]-3,4-dihydro-imidazo[4,5-c]pyridin-5-yl}-acetic acid

>  <Target Name>  (1) 
Type-1 angiotensin II receptor B

>  <Target Source Organism According to Curator or DataSource>  (1) 
Rattus

>  <Ki (nM)>  (1) 


>  <IC50 (nM)>  (1) 
 56

>  <Kd (nM)>  (1) 


>  <EC50 (nM)>  (1) 


>  <kon (M-1-s-1)>  (1) 


>  <koff (s-1)>  (1) 


>  <pH>  (1) 


>  <Temp C>  (1) 


>  <Curation/DataSource>  (1) 
ChEMBL

>  <Article DOI>  (1) 
10.1021/jm00037a014

>  <BindingDB Entry DOI>  (1) 
10.7270/Q2RR1X9M

>  <PMID>  (1) 
8201597

>  <PubChem AID>  (1) 


>  <Patent Number>  (1) 


>  <Authors>  (1) 
Mederski, WW; Dorsch, D; Bokel, HH; Beier, N; Lues, I; Schelling, P

>  <Institution>  (1) 
E. Merck

>  <Link to Ligand in BindingDB>  (1) 
http://www.bindingdb.org/bind/chemsearch/marvin/MolStructure.jsp?monomerid=50041696

>  <Link to Ligand-Target Pair in BindingDB>  (1) 
http://www.bindingdb.org/jsp/dbsearch/PrimarySearch_ki.jsp?energyterm=kJ/mole&tag=r21&monomerid=50041696&enzyme=Type-1+angiotensin+II+receptor+B&column=ki&startPg=0&Increment=50&submit=Search

>  <Ligand HET ID in PDB>  (1) 


>  <PDB ID(s) for Ligand-Target Complex>  (1) 


>  <PubChem CID of Ligand>  (1) 
10005512

>  <PubChem SID of Ligand>  (1) 
103973386

>  <ChEBI ID of Ligand>  (1) 


>  <ChEMBL ID of Ligand>  (1) 
CHEMBL42631

>  <DrugBank ID of Ligand>  (1) 


>  <IUPHAR_GRAC ID of Ligand>  (1) 


>  <KEGG ID of Ligand>  (1) 


>  <ZINC ID of Ligand>  (1) 
ZINC13736758

>  <Number of Protein Chains in Target (bigger than 1 implies a multichain complex)>  (1) 
1

>  <BindingDB Target Chain Sequence>  (1) 
MTLNSSTEDGIKRIQDDCPKAGRHNYIFVMIPTLYSIIFVVGIFGNSLVVIVIYFYMKLKTVASVFLLNLALADLCFLLTLPLWAVYTAMEYRWPFGNHLCKIASASVSFNLYASVFLLTCLSIDRYLAIVHPMKSRLRRTMLVAKVTCIIIWLMAGLASLPAVIYRNVYFIENTNITVCAFHYESQNSTLPIGLGLTKNILGFVFPFLIILTSYTLIWKALKKAYKIQKNTPRNDDIFRIIMAIVLFFFFSWVPHQIFTFLDVLIQLGIIRDCEIADIVDTAMPITICIAYFNNCLNPLFYGFLGKKFKKYFLQLLKYIPPTAKSHAGLSTKMSTLSYRPSDNMSSSAKKSASFFEVE

>  <PDB ID(s) of Target Chain>  (1) 


>  <UniProt (SwissProt) Recommended Name of Target Chain>  (1) 
Type-1 angiotensin II receptor B

>  <UniProt (SwissProt) Entry Name of Target Chain>  (1) 
AGTRB_RAT

>  <UniProt (SwissProt) Primary ID of Target Chain>  (1) 
P29089

>  <UniProt (SwissProt) Secondary ID(s) of Target Chain>  (1) 


>  <UniProt (SwissProt) Alternative ID(s) of Target Chain>  (1) 


>  <UniProt (TrEMBL) Submitted Name of Target Chain>  (1) 


>  <UniProt (TrEMBL) Entry Name of Target Chain>  (1) 


>  <UniProt (TrEMBL) Primary ID of Target Chain>  (1) 


>  <UniProt (TrEMBL) Secondary ID(s) of Target Chain>  (1) 


>  <UniProt (TrEMBL) Alternative ID(s) of Target Chain>  (1) 


$$$$
