
     RDKit          2D

 35 38  0  0  0  0  0  0  0  0999 V2000
   14.9014  -11.2096    0.0000 C   0  0  0  0  0  0  0  0  0  0  0  0
   15.5979  -10.7820    0.0000 C   0  0  0  0  0  0  0  0  0  0  0  0
   16.3159  -11.1706    0.0000 C   0  0  0  0  0  0  0  0  0  0  0  0
   16.3374  -11.9869    0.0000 C   0  0  0  0  0  0  0  0  0  0  0  0
   15.6410  -12.4146    0.0000 C   0  0  0  0  0  0  0  0  0  0  0  0
   14.9230  -12.0260    0.0000 C   0  0  0  0  0  0  0  0  0  0  0  0
   14.1834  -10.8210    0.0000 C   0  0  0  0  0  0  0  0  0  0  0  0
   13.4858  -11.2526    0.0000 C   0  0  0  0  0  0  0  0  0  0  0  0
   12.7678  -10.8640    0.0000 C   0  0  0  0  0  0  0  0  0  0  0  0
   12.7423  -10.0465    0.0000 C   0  0  0  0  0  0  0  0  0  0  0  0
   13.4387   -9.6188    0.0000 C   0  0  0  0  0  0  0  0  0  0  0  0
   14.1567  -10.0075    0.0000 C   0  0  0  0  0  0  0  0  0  0  0  0
   15.5723   -9.9645    0.0000 C   0  0  0  0  0  0  0  0  0  0  0  0
   14.8543   -9.5758    0.0000 O   0  0  0  0  0  0  0  0  0  0  0  0
   16.2688   -9.5368    0.0000 O   0  0  0  0  0  0  0  0  0  0  0  0
   12.0243   -9.6578    0.0000 C   0  0  0  0  0  0  0  0  0  0  0  0
   12.4841   -8.1767    0.0000 C   0  0  0  0  0  0  0  0  0  0  0  0
   11.9998   -7.5175    0.0000 N   0  0  0  0  0  0  0  0  0  0  0  0
   11.2226   -7.7681    0.0000 C   0  0  0  0  0  0  0  0  0  0  0  0
   11.2226   -8.5853    0.0000 C   0  0  0  0  0  0  0  0  0  0  0  0
   11.9998   -8.8399    0.0000 N   0  0  0  0  0  0  0  0  0  0  0  0
   10.5176   -7.3595    0.0000 C   0  0  0  0  0  0  0  0  0  0  0  0
    9.8085   -7.7681    0.0000 C   0  0  0  0  0  0  0  0  0  0  0  0
    9.8085   -8.5853    0.0000 C   0  0  0  0  0  0  0  0  0  0  0  0
   10.5176   -8.9939    0.0000 C   0  0  0  0  0  0  0  0  0  0  0  0
   13.3013   -8.1767    0.0000 C   0  0  0  0  0  0  0  0  0  0  0  0
   13.7099   -7.4717    0.0000 C   0  0  0  0  0  0  0  0  0  0  0  0
   14.5271   -7.4717    0.0000 C   0  0  0  0  0  0  0  0  0  0  0  0
   10.5176   -6.5423    0.0000 C   0  0  0  0  0  0  0  0  0  0  0  0
    9.1036   -8.9939    0.0000 N   0  0  0  0  0  0  0  0  0  0  0  0
    8.3945   -8.5853    0.0000 C   0  0  0  0  0  0  0  0  0  0  0  0
    8.3945   -7.7681    0.0000 O   0  0  0  0  0  0  0  0  0  0  0  0
    7.6854   -8.9939    0.0000 C   0  0  0  0  0  0  0  0  0  0  0  0
    6.9763   -8.5853    0.0000 C   0  0  0  0  0  0  0  0  0  0  0  0
    6.2713   -8.9939    0.0000 C   0  0  0  0  0  0  0  0  0  0  0  0
  1  2  2  0
  2  3  1  0
  3  4  2  0
  4  5  1  0
  5  6  2  0
  1  6  1  0
  7  8  2  0
  8  9  1  0
  9 10  2  0
 10 11  1  0
 11 12  2  0
  7 12  1  0
  1  7  1  0
 13 14  2  0
 13 15  1  0
  2 13  1  0
 17 18  2  0
 18 19  1  0
 19 20  2  0
 20 21  1  0
 17 21  1  0
 22 23  2  0
 23 24  1  0
 24 25  2  0
 20 25  1  0
 19 22  1  0
 26 27  1  0
 27 28  1  0
 17 26  1  0
 22 29  1  0
 31 32  2  0
 31 33  1  0
 33 34  1  0
 34 35  1  0
 30 31  1  0
 24 30  1  0
 16 21  1  0
 10 16  1  0
M  END
>  <From>  (1) 
www.bindingDB.org

>  <BindingDB Reactant_set_id>  (1) 
51199726

>  <Ligand InChI>  (1) 
InChI=1S/C29H31N3O3/c1-4-8-26-31-28-19(3)16-22(30-27(33)9-5-2)17-25(28)32(26)18-20-12-14-21(15-13-20)23-10-6-7-11-24(23)29(34)35/h6-7,10-17H,4-5,8-9,18H2,1-3H3,(H,30,33)(H,34,35)

>  <Ligand InChI Key>  (1) 
DGXVMSJCVAIYLV-UHFFFAOYSA-N

>  <BindingDB MonomerID>  (1) 
50493578

>  <BindingDB Ligand Name>  (1) 
CHEMBL2435824

>  <Target Name>  (1) 
Type-1 angiotensin II receptor

>  <Target Source Organism According to Curator or DataSource>  (1) 
Homo sapiens

>  <Ki (nM)>  (1) 


>  <IC50 (nM)>  (1) 
 0.300000

>  <Kd (nM)>  (1) 


>  <EC50 (nM)>  (1) 


>  <kon (M-1-s-1)>  (1) 


>  <koff (s-1)>  (1) 


>  <pH>  (1) 


>  <Temp C>  (1) 


>  <Curation/DataSource>  (1) 
ChEMBL

>  <Article DOI>  (1) 
10.1016/j.ejmech.2013.08.014

>  <BindingDB Entry DOI>  (1) 
10.7270/Q2PK0K32

>  <PMID>  (1) 
24007859

>  <PubChem AID>  (1) 


>  <Patent Number>  (1) 


>  <Authors>  (1) 
Zhang, J; Wang, JL; Yu, WF; Zhou, ZM; Tao, WC; Wang, YC; Xue, WZ; Xu, D; Hao, LP; Han, XF; Fei, F; Liu, T; Liang, AH

>  <Institution>  (1) 
Beijing Institute of Technology

>  <Link to Ligand in BindingDB>  (1) 
http://www.bindingdb.org/bind/chemsearch/marvin/MolStructure.jsp?monomerid=50493578

>  <Link to Ligand-Target Pair in BindingDB>  (1) 
http://www.bindingdb.org/jsp/dbsearch/PrimarySearch_ki.jsp?energyterm=kJ/mole&tag=r21&monomerid=50493578&enzyme=Type-1+angiotensin+II+receptor&column=ki&startPg=0&Increment=50&submit=Search

>  <Ligand HET ID in PDB>  (1) 


>  <PDB ID(s) for Ligand-Target Complex>  (1) 


>  <PubChem CID of Ligand>  (1) 
73353934

>  <PubChem SID of Ligand>  (1) 
433960843

>  <ChEBI ID of Ligand>  (1) 


>  <ChEMBL ID of Ligand>  (1) 


>  <DrugBank ID of Ligand>  (1) 


>  <IUPHAR_GRAC ID of Ligand>  (1) 


>  <KEGG ID of Ligand>  (1) 


>  <ZINC ID of Ligand>  (1) 


>  <Number of Protein Chains in Target (bigger than 1 implies a multichain complex)>  (1) 
1

>  <BindingDB Target Chain Sequence>  (1) 
MILNSSTEDGIKRIQDDCPKAGRHNYIFVMIPTLYSIIFVVGIFGNSLVVIVIYFYMKLKTVASVFLLNLALADLCFLLTLPLWAVYTAMEYRWPFGNYLCKIASASVSFNLYASVFLLTCLSIDRYLAIVHPMKSRLRRTMLVAKVTCIIIWLLAGLASLPAIIHRNVFFIENTNITVCAFHYESQNSTLPIGLGLTKNILGFLFPFLIILTSYTLIWKALKKAYEIQKNKPRNDDIFKIIMAIVLFFFFSWIPHQIFTFLDVLIQLGIIRDCRIADIVDTAMPITICIAYFNNCLNPLFYGFLGKKFKRYFLQLLKYIPPKAKSHSNLSTKMSTLSYRPSDNVSSSTKKPAPCFEVE

>  <PDB ID(s) of Target Chain>  (1) 
6DO1,6OS0,6OS1,6OS2

>  <UniProt (SwissProt) Recommended Name of Target Chain>  (1) 
Type-1 angiotensin II receptor

>  <UniProt (SwissProt) Entry Name of Target Chain>  (1) 
AGTR1_HUMAN

>  <UniProt (SwissProt) Primary ID of Target Chain>  (1) 
P30556

>  <UniProt (SwissProt) Secondary ID(s) of Target Chain>  (1) 
Q13725 Q8TBK4

>  <UniProt (SwissProt) Alternative ID(s) of Target Chain>  (1) 


>  <UniProt (TrEMBL) Submitted Name of Target Chain>  (1) 


>  <UniProt (TrEMBL) Entry Name of Target Chain>  (1) 


>  <UniProt (TrEMBL) Primary ID of Target Chain>  (1) 


>  <UniProt (TrEMBL) Secondary ID(s) of Target Chain>  (1) 


>  <UniProt (TrEMBL) Alternative ID(s) of Target Chain>  (1) 


$$$$
