
     RDKit          2D

 30 34  0  0  0  0  0  0  0  0999 V2000
    7.4917   -6.1667    0.0000 C   0  0  0  0  0  0  0  0  0  0  0  0
    7.5792   -4.8042    0.0000 N   0  0  0  0  0  0  0  0  0  0  0  0
    6.9917   -5.4792    0.0000 N   0  0  0  0  0  0  0  0  0  0  0  0
    8.3875   -5.1875    0.0000 N   0  0  0  0  0  0  0  0  0  0  0  0
    8.3000   -5.9917    0.0000 N   0  0  0  0  0  0  0  0  0  0  0  0
    6.9042   -6.7500    0.0000 C   0  0  0  0  0  0  0  0  0  0  0  0
    4.5667   -0.4750    0.0000 N   0  0  0  0  0  0  0  0  0  0  0  0
    4.5667   -2.1250    0.0000 C   0  0  0  0  0  0  0  0  0  0  0  0
    6.1167   -6.5417    0.0000 C   0  0  0  0  0  0  0  0  0  0  0  0
    5.2792   -1.7125    0.0000 C   0  0  0  0  0  0  0  0  0  0  0  0
    5.2792   -0.8875    0.0000 C   0  0  0  0  0  0  0  0  0  0  0  0
    3.8667   -1.7125    0.0000 C   0  0  0  0  0  0  0  0  0  0  0  0
    4.5667   -2.9500    0.0000 S   0  0  0  0  0  0  0  0  0  0  0  0
    3.8667   -0.8875    0.0000 C   0  0  0  0  0  0  0  0  0  0  0  0
    5.9125   -5.7542    0.0000 C   0  0  0  0  0  0  0  0  0  0  0  0
    5.1042   -5.5292    0.0000 C   0  0  0  0  0  0  0  0  0  0  0  0
    6.4917   -5.1667    0.0000 C   0  0  0  0  0  0  0  0  0  0  0  0
    5.2792   -3.3625    0.0000 C   0  0  0  0  0  0  0  0  0  0  0  0
    5.5000   -4.1542    0.0000 C   0  0  0  0  0  0  0  0  0  0  0  0
    4.9042   -4.7375    0.0000 C   0  0  0  0  0  0  0  0  0  0  0  0
    6.2792   -4.3792    0.0000 C   0  0  0  0  0  0  0  0  0  0  0  0
    7.1292   -7.5542    0.0000 C   0  0  0  0  0  0  0  0  0  0  0  0
    5.5292   -7.1292    0.0000 C   0  0  0  0  0  0  0  0  0  0  0  0
    5.9875   -2.1250    0.0000 C   0  0  0  0  0  0  0  0  0  0  0  0
    5.9917   -0.4750    0.0000 C   0  0  0  0  0  0  0  0  0  0  0  0
    3.1417   -0.4750    0.0000 C   0  0  0  0  0  0  0  0  0  0  0  0
    6.5375   -8.1417    0.0000 C   0  0  0  0  0  0  0  0  0  0  0  0
    5.7417   -7.9167    0.0000 C   0  0  0  0  0  0  0  0  0  0  0  0
    6.7042   -1.7125    0.0000 C   0  0  0  0  0  0  0  0  0  0  0  0
    6.7042   -0.8875    0.0000 C   0  0  0  0  0  0  0  0  0  0  0  0
  2  3  1  0
  3  1  1  0
  4  5  1  0
  5  1  2  0
  6  1  1  0
  7 14  2  0
  8 13  1  0
  9  6  1  0
 10  8  1  0
 11 10  2  0
 12  8  2  0
 13 18  1  0
 14 12  1  0
 15  9  1  0
 16 15  2  0
 17 15  1  0
 18 19  1  0
 19 21  1  0
 20 16  1  0
 21 17  2  0
 22  6  2  0
 23  9  2  0
 24 10  1  0
 25 11  1  0
 26 14  1  0
 27 22  1  0
 28 27  2  0
 29 24  2  0
 30 29  1  0
  2  4  2  0
 28 23  1  0
 20 19  2  0
  7 11  1  0
 25 30  2  0
M  END
>  <From>  (1) 
www.bindingDB.org

>  <BindingDB Reactant_set_id>  (1) 
50005376

>  <Ligand InChI>  (1) 
InChI=1S/C24H19N5S/c1-16-14-23(21-8-4-5-9-22(21)25-16)30-15-17-10-12-18(13-11-17)19-6-2-3-7-20(19)24-26-28-29-27-24/h2-14H,15H2,1H3,(H,26,27,28,29)

>  <Ligand InChI Key>  (1) 
NXGPCSIDUWFMTK-UHFFFAOYSA-N

>  <BindingDB MonomerID>  (1) 
50003406

>  <BindingDB Ligand Name>  (1) 
2-Methyl-4-[2'-(1H-tetrazol-5-yl)-biphenyl-4-ylmethylsulfanyl]-quinoline::2-Methyl-4-[2'-(2H-tetrazol-5-yl)-biphenyl-4-ylmethylsulfanyl]-quinoline::CHEMBL141447

>  <Target Name>  (1) 
Type-1 angiotensin II receptor

>  <Target Source Organism According to Curator or DataSource>  (1) 
Cavia porcellus

>  <Ki (nM)>  (1) 


>  <IC50 (nM)>  (1) 
 370

>  <Kd (nM)>  (1) 


>  <EC50 (nM)>  (1) 


>  <kon (M-1-s-1)>  (1) 


>  <koff (s-1)>  (1) 


>  <pH>  (1) 


>  <Temp C>  (1) 


>  <Curation/DataSource>  (1) 
ChEMBL

>  <Article DOI>  (1) 
10.1021/jm00100a007

>  <BindingDB Entry DOI>  (1) 
10.7270/Q2G44P8Q

>  <PMID>  (1) 
1433210

>  <PubChem AID>  (1) 


>  <Patent Number>  (1) 


>  <Authors>  (1) 
Bradbury, RH; Allott, CP; Dennis, M; Fisher, E; Major, JS; Masek, BB; Oldham, AA; Pearce, RJ; Rankine, N; Revill, JM

>  <Institution>  (1) 
ICI Pharmaceuticals Group

>  <Link to Ligand in BindingDB>  (1) 
http://www.bindingdb.org/bind/chemsearch/marvin/MolStructure.jsp?monomerid=50003406

>  <Link to Ligand-Target Pair in BindingDB>  (1) 
http://www.bindingdb.org/jsp/dbsearch/PrimarySearch_ki.jsp?energyterm=kJ/mole&tag=r21&monomerid=50003406&enzyme=Type-1+angiotensin+II+receptor&column=ki&startPg=0&Increment=50&submit=Search

>  <Ligand HET ID in PDB>  (1) 


>  <PDB ID(s) for Ligand-Target Complex>  (1) 


>  <PubChem CID of Ligand>  (1) 
10252966

>  <PubChem SID of Ligand>  (1) 
103917379

>  <ChEBI ID of Ligand>  (1) 


>  <ChEMBL ID of Ligand>  (1) 
CHEMBL141447

>  <DrugBank ID of Ligand>  (1) 


>  <IUPHAR_GRAC ID of Ligand>  (1) 


>  <KEGG ID of Ligand>  (1) 


>  <ZINC ID of Ligand>  (1) 
ZINC13744320

>  <Number of Protein Chains in Target (bigger than 1 implies a multichain complex)>  (1) 
1

>  <BindingDB Target Chain Sequence>  (1) 
MILNSSTEDGIKRIQDDCPKAGRHSYIFVMIPTLYSIIFVVGIFGNSLVVIVIYFYMKLKTVASVFLLNLALADICFLLTLPLWAVYTAMEYRWPFGNYLCKIASASVSFNLYASVFLLTCLSIDRYLAIVHPMKSRLRRTMLVAKVTCVIIWLMAGLASLPAVIHRNVFFIENTNITVCAFHYESQNSTLPIGLGLTKNILGFMFPFLIILTSYTLIWKALKKAYEIQKNKPRNDDIFKIIMAIVLFFFFSWVPHQIFTFLDVLIQLGIIHDCKISDIVDTAMPITICIAYFNNCLNPLFYGFLGKKFKKYFLQLLKYIPPKAKSHSTLSTKMSTLSYRPSDNVSSSAKKPVQCFEVE

>  <PDB ID(s) of Target Chain>  (1) 
4ZUD

>  <UniProt (SwissProt) Recommended Name of Target Chain>  (1) 
Type-1 angiotensin II receptor

>  <UniProt (SwissProt) Entry Name of Target Chain>  (1) 
AGTR1_CAVPO

>  <UniProt (SwissProt) Primary ID of Target Chain>  (1) 
Q9WV26

>  <UniProt (SwissProt) Secondary ID(s) of Target Chain>  (1) 


>  <UniProt (SwissProt) Alternative ID(s) of Target Chain>  (1) 


>  <UniProt (TrEMBL) Submitted Name of Target Chain>  (1) 


>  <UniProt (TrEMBL) Entry Name of Target Chain>  (1) 


>  <UniProt (TrEMBL) Primary ID of Target Chain>  (1) 


>  <UniProt (TrEMBL) Secondary ID(s) of Target Chain>  (1) 


>  <UniProt (TrEMBL) Alternative ID(s) of Target Chain>  (1) 


$$$$
