
     RDKit          2D

 40 44  0  0  0  0  0  0  0  0999 V2000
   22.6595   -8.0239    0.0000 C   0  0  0  0  0  0  0  0  0  0  0  0
   23.2073   -7.4174    0.0000 C   0  0  0  0  0  0  0  0  0  0  0  0
   24.0057   -7.5882    0.0000 C   0  0  0  0  0  0  0  0  0  0  0  0
   24.2563   -8.3654    0.0000 C   0  0  0  0  0  0  0  0  0  0  0  0
   23.7084   -8.9719    0.0000 C   0  0  0  0  0  0  0  0  0  0  0  0
   22.9100   -8.8011    0.0000 C   0  0  0  0  0  0  0  0  0  0  0  0
   21.8611   -7.8531    0.0000 C   0  0  0  0  0  0  0  0  0  0  0  0
   21.3132   -8.4637    0.0000 C   0  0  0  0  0  0  0  0  0  0  0  0
   20.5149   -8.2929    0.0000 C   0  0  0  0  0  0  0  0  0  0  0  0
   20.2602   -7.5157    0.0000 C   0  0  0  0  0  0  0  0  0  0  0  0
   20.8080   -6.9051    0.0000 C   0  0  0  0  0  0  0  0  0  0  0  0
   21.6064   -7.0759    0.0000 C   0  0  0  0  0  0  0  0  0  0  0  0
   22.9526   -6.6402    0.0000 C   0  0  0  0  0  0  0  0  0  0  0  0
   22.1543   -6.4694    0.0000 O   0  0  0  0  0  0  0  0  0  0  0  0
   23.5005   -6.0337    0.0000 O   0  0  0  0  0  0  0  0  0  0  0  0
   19.4618   -7.3450    0.0000 C   0  0  0  0  0  0  0  0  0  0  0  0
   19.6873   -5.9045    0.0000 C   0  0  0  0  0  0  0  0  0  0  0  0
   19.2112   -5.2453    0.0000 N   0  0  0  0  0  0  0  0  0  0  0  0
   18.4299   -5.4959    0.0000 C   0  0  0  0  0  0  0  0  0  0  0  0
   18.4299   -6.3131    0.0000 C   0  0  0  0  0  0  0  0  0  0  0  0
   19.2112   -6.5677    0.0000 N   0  0  0  0  0  0  0  0  0  0  0  0
   17.7249   -5.0873    0.0000 C   0  0  0  0  0  0  0  0  0  0  0  0
   17.0158   -5.4959    0.0000 C   0  0  0  0  0  0  0  0  0  0  0  0
   17.0158   -6.3131    0.0000 C   0  0  0  0  0  0  0  0  0  0  0  0
   17.7249   -6.7258    0.0000 C   0  0  0  0  0  0  0  0  0  0  0  0
   20.5045   -5.9045    0.0000 C   0  0  0  0  0  0  0  0  0  0  0  0
   20.9131   -5.1995    0.0000 C   0  0  0  0  0  0  0  0  0  0  0  0
   21.7302   -5.1995    0.0000 C   0  0  0  0  0  0  0  0  0  0  0  0
   17.7249   -4.2701    0.0000 C   0  0  0  0  0  0  0  0  0  0  0  0
   16.3068   -6.7258    0.0000 C   0  0  0  0  0  0  0  0  0  0  0  0
   15.6018   -6.3131    0.0000 O   0  0  0  0  0  0  0  0  0  0  0  0
   16.3068   -7.5430    0.0000 N   0  0  0  0  0  0  0  0  0  0  0  0
   15.6018   -7.9516    0.0000 C   0  0  0  0  0  0  0  0  0  0  0  0
   15.6018   -8.7688    0.0000 C   0  0  0  0  0  0  0  0  0  0  0  0
   14.8927   -9.1774    0.0000 N   0  0  0  0  0  0  0  0  0  0  0  0
   14.8927   -9.9946    0.0000 C   0  0  0  0  0  0  0  0  0  0  0  0
   14.1836  -10.4031    0.0000 C   0  0  0  0  0  0  0  0  0  0  0  0
   13.4786   -9.9946    0.0000 O   0  0  0  0  0  0  0  0  0  0  0  0
   13.4786   -9.1774    0.0000 C   0  0  0  0  0  0  0  0  0  0  0  0
   14.1836   -8.7688    0.0000 C   0  0  0  0  0  0  0  0  0  0  0  0
  1  2  2  0
  2  3  1  0
  3  4  2  0
  4  5  1  0
  5  6  2  0
  1  6  1  0
  7  8  2  0
  8  9  1  0
  9 10  2  0
 10 11  1  0
 11 12  2  0
  7 12  1  0
  1  7  1  0
 13 14  2  0
 13 15  1  0
  2 13  1  0
 17 18  2  0
 18 19  1  0
 19 20  2  0
 20 21  1  0
 17 21  1  0
 22 23  2  0
 23 24  1  0
 24 25  2  0
 20 25  1  0
 19 22  1  0
 26 27  1  0
 27 28  1  0
 17 26  1  0
 22 29  1  0
 30 31  2  0
 33 34  1  0
 35 36  1  0
 36 37  1  0
 37 38  1  0
 38 39  1  0
 39 40  1  0
 35 40  1  0
 34 35  1  0
 32 33  1  0
 30 32  1  0
 24 30  1  0
 16 21  1  0
 10 16  1  0
M  END
>  <From>  (1) 
www.bindingDB.org

>  <BindingDB Reactant_set_id>  (1) 
51199722

>  <Ligand InChI>  (1) 
InChI=1S/C32H36N4O4/c1-3-6-29-34-30-22(2)19-25(31(37)33-13-14-35-15-17-40-18-16-35)20-28(30)36(29)21-23-9-11-24(12-10-23)26-7-4-5-8-27(26)32(38)39/h4-5,7-12,19-20H,3,6,13-18,21H2,1-2H3,(H,33,37)(H,38,39)

>  <Ligand InChI Key>  (1) 
KMSJMALTKMNVCA-UHFFFAOYSA-N

>  <BindingDB MonomerID>  (1) 
50493580

>  <BindingDB Ligand Name>  (1) 
CHEMBL2435819

>  <Target Name>  (1) 
Type-1 angiotensin II receptor

>  <Target Source Organism According to Curator or DataSource>  (1) 
Homo sapiens

>  <Ki (nM)>  (1) 


>  <IC50 (nM)>  (1) 
 11

>  <Kd (nM)>  (1) 


>  <EC50 (nM)>  (1) 


>  <kon (M-1-s-1)>  (1) 


>  <koff (s-1)>  (1) 


>  <pH>  (1) 


>  <Temp C>  (1) 


>  <Curation/DataSource>  (1) 
ChEMBL

>  <Article DOI>  (1) 
10.1016/j.ejmech.2013.08.014

>  <BindingDB Entry DOI>  (1) 
10.7270/Q2PK0K32

>  <PMID>  (1) 
24007859

>  <PubChem AID>  (1) 


>  <Patent Number>  (1) 


>  <Authors>  (1) 
Zhang, J; Wang, JL; Yu, WF; Zhou, ZM; Tao, WC; Wang, YC; Xue, WZ; Xu, D; Hao, LP; Han, XF; Fei, F; Liu, T; Liang, AH

>  <Institution>  (1) 
Beijing Institute of Technology

>  <Link to Ligand in BindingDB>  (1) 
http://www.bindingdb.org/bind/chemsearch/marvin/MolStructure.jsp?monomerid=50493580

>  <Link to Ligand-Target Pair in BindingDB>  (1) 
http://www.bindingdb.org/jsp/dbsearch/PrimarySearch_ki.jsp?energyterm=kJ/mole&tag=r21&monomerid=50493580&enzyme=Type-1+angiotensin+II+receptor&column=ki&startPg=0&Increment=50&submit=Search

>  <Ligand HET ID in PDB>  (1) 


>  <PDB ID(s) for Ligand-Target Complex>  (1) 


>  <PubChem CID of Ligand>  (1) 
73355474

>  <PubChem SID of Ligand>  (1) 
433960845

>  <ChEBI ID of Ligand>  (1) 


>  <ChEMBL ID of Ligand>  (1) 


>  <DrugBank ID of Ligand>  (1) 


>  <IUPHAR_GRAC ID of Ligand>  (1) 


>  <KEGG ID of Ligand>  (1) 


>  <ZINC ID of Ligand>  (1) 


>  <Number of Protein Chains in Target (bigger than 1 implies a multichain complex)>  (1) 
1

>  <BindingDB Target Chain Sequence>  (1) 
MILNSSTEDGIKRIQDDCPKAGRHNYIFVMIPTLYSIIFVVGIFGNSLVVIVIYFYMKLKTVASVFLLNLALADLCFLLTLPLWAVYTAMEYRWPFGNYLCKIASASVSFNLYASVFLLTCLSIDRYLAIVHPMKSRLRRTMLVAKVTCIIIWLLAGLASLPAIIHRNVFFIENTNITVCAFHYESQNSTLPIGLGLTKNILGFLFPFLIILTSYTLIWKALKKAYEIQKNKPRNDDIFKIIMAIVLFFFFSWIPHQIFTFLDVLIQLGIIRDCRIADIVDTAMPITICIAYFNNCLNPLFYGFLGKKFKRYFLQLLKYIPPKAKSHSNLSTKMSTLSYRPSDNVSSSTKKPAPCFEVE

>  <PDB ID(s) of Target Chain>  (1) 
6DO1,6OS0,6OS1,6OS2

>  <UniProt (SwissProt) Recommended Name of Target Chain>  (1) 
Type-1 angiotensin II receptor

>  <UniProt (SwissProt) Entry Name of Target Chain>  (1) 
AGTR1_HUMAN

>  <UniProt (SwissProt) Primary ID of Target Chain>  (1) 
P30556

>  <UniProt (SwissProt) Secondary ID(s) of Target Chain>  (1) 
Q13725 Q8TBK4

>  <UniProt (SwissProt) Alternative ID(s) of Target Chain>  (1) 


>  <UniProt (TrEMBL) Submitted Name of Target Chain>  (1) 


>  <UniProt (TrEMBL) Entry Name of Target Chain>  (1) 


>  <UniProt (TrEMBL) Primary ID of Target Chain>  (1) 


>  <UniProt (TrEMBL) Secondary ID(s) of Target Chain>  (1) 


>  <UniProt (TrEMBL) Alternative ID(s) of Target Chain>  (1) 


$$$$
