
     RDKit          2D

 32 35  0  0  0  0  0  0  0  0999 V2000
    4.8641   -1.3464    0.0000 N   0  0  0  0  0  0  0  0  0  0  0  0
    5.5230   -0.8594    0.0000 C   0  0  0  0  0  0  0  0  0  0  0  0
    4.4401   -0.0859    0.0000 N   0  0  0  0  0  0  0  0  0  0  0  0
    4.1937   -0.8651    0.0000 C   0  0  0  0  0  0  0  0  0  0  0  0
    5.2651   -0.0745    0.0000 C   0  0  0  0  0  0  0  0  0  0  0  0
    6.3308   -1.0198    0.0000 N   0  0  0  0  0  0  0  0  0  0  0  0
    2.0167   -4.6578    0.0000 C   0  0  0  0  0  0  0  0  0  0  0  0
    5.8151    0.5328    0.0000 C   0  0  0  0  0  0  0  0  0  0  0  0
    1.2948   -5.0703    0.0000 C   0  0  0  0  0  0  0  0  0  0  0  0
    2.7214   -5.0703    0.0000 C   0  0  0  0  0  0  0  0  0  0  0  0
    4.8698   -2.1714    0.0000 C   0  0  0  0  0  0  0  0  0  0  0  0
    2.0167   -3.8328    0.0000 O   0  0  0  0  0  0  0  0  0  0  0  0
    6.8808   -0.4125    0.0000 C   0  0  0  0  0  0  0  0  0  0  0  0
    6.6172    0.3723    0.0000 C   0  0  0  0  0  0  0  0  0  0  0  0
    3.4433   -4.6578    0.0000 O   0  0  0  0  0  0  0  0  0  0  0  0
    1.2948   -5.8839    0.0000 C   0  0  0  0  0  0  0  0  0  0  0  0
    2.7328   -3.4203    0.0000 C   0  0  0  0  0  0  0  0  0  0  0  0
    4.1594   -2.5839    0.0000 C   0  0  0  0  0  0  0  0  0  0  0  0
    2.7214   -5.8953    0.0000 O   0  0  0  0  0  0  0  0  0  0  0  0
    3.4089   -1.1230    0.0000 C   0  0  0  0  0  0  0  0  0  0  0  0
    3.4433   -3.8328    0.0000 C   0  0  0  0  0  0  0  0  0  0  0  0
    2.7328   -2.5953    0.0000 C   0  0  0  0  0  0  0  0  0  0  0  0
    4.1594   -3.4203    0.0000 C   0  0  0  0  0  0  0  0  0  0  0  0
    3.4433   -2.1714    0.0000 C   0  0  0  0  0  0  0  0  0  0  0  0
    0.5901   -4.6464    0.0000 C   0  0  0  0  0  0  0  0  0  0  0  0
    5.5516    1.3177    0.0000 C   0  0  0  0  0  0  0  0  0  0  0  0
    7.6886   -0.5730    0.0000 C   0  0  0  0  0  0  0  0  0  0  0  0
    2.0167   -6.2964    0.0000 C   0  0  0  0  0  0  0  0  0  0  0  0
    0.5901   -6.2964    0.0000 C   0  0  0  0  0  0  0  0  0  0  0  0
    2.7901   -0.5844    0.0000 C   0  0  0  0  0  0  0  0  0  0  0  0
   -0.1317   -5.0589    0.0000 C   0  0  0  0  0  0  0  0  0  0  0  0
   -0.1317   -5.8839    0.0000 C   0  0  0  0  0  0  0  0  0  0  0  0
  2  1  1  0
  3  4  2  0
  4  1  1  0
  5  2  2  0
  6  2  1  0
  7 12  1  0
  8  5  1  0
  9  7  1  0
 10  7  1  0
 11  1  1  0
 12 17  1  0
 13  6  2  0
 14 13  1  0
 15 10  2  0
 16  9  2  0
 17 22  2  0
 18 11  1  0
 19 10  1  0
 20  4  1  0
 21 23  2  0
 22 24  1  0
 23 18  1  0
 24 18  2  0
 25  9  1  0
 26  8  1  0
 27 13  1  0
 28 16  1  0
 29 16  1  0
 30 20  1  0
 31 25  2  0
 32 31  1  0
  5  3  1  0
 17 21  1  0
 14  8  2  0
 32 29  2  0
M  END
>  <From>  (1) 
www.bindingDB.org

>  <BindingDB Reactant_set_id>  (1) 
50003619

>  <Ligand InChI>  (1) 
InChI=1S/C26H27N3O3/c1-5-22-28-23-17(3)14-18(4)27-25(23)29(22)15-19-10-12-20(13-11-19)32-24(26(30)31)21-9-7-6-8-16(21)2/h6-14,24H,5,15H2,1-4H3,(H,30,31)

>  <Ligand InChI Key>  (1) 
LVMONIJOVGXDFX-UHFFFAOYSA-N

>  <BindingDB MonomerID>  (1) 
50284454

>  <BindingDB Ligand Name>  (1) 
CHEMBL15606::[4-(2-Ethyl-5,7-dimethyl-imidazo[4,5-b]pyridin-3-ylmethyl)-phenoxy]-o-tolyl-acetic acid

>  <Target Name>  (1) 
Type-1 angiotensin II receptor

>  <Target Source Organism According to Curator or DataSource>  (1) 
Oryctolagus cuniculus

>  <Ki (nM)>  (1) 


>  <IC50 (nM)>  (1) 
 6

>  <Kd (nM)>  (1) 


>  <EC50 (nM)>  (1) 


>  <kon (M-1-s-1)>  (1) 


>  <koff (s-1)>  (1) 


>  <pH>  (1) 


>  <Temp C>  (1) 


>  <Curation/DataSource>  (1) 
ChEMBL

>  <Article DOI>  (1) 
10.1016/0960-894X(95)00185-V

>  <BindingDB Entry DOI>  (1) 
10.7270/Q2J67GV9

>  <PMID>  (1) 


>  <PubChem AID>  (1) 


>  <Patent Number>  (1) 


>  <Authors>  (1) 
Walsh, TF; Fitch, KJ; Chang, RS; Faust, KA; Chen, TB; Kivlighn, SD; Zingaro, GJ; Lotti, VJ; Siegl, PK; Patchett, AA; Greenlee, WJ

>  <Institution>  (1) 
TBA

>  <Link to Ligand in BindingDB>  (1) 
http://www.bindingdb.org/bind/chemsearch/marvin/MolStructure.jsp?monomerid=50284454

>  <Link to Ligand-Target Pair in BindingDB>  (1) 
http://www.bindingdb.org/jsp/dbsearch/PrimarySearch_ki.jsp?energyterm=kJ/mole&tag=r21&monomerid=50284454&enzyme=Type-1+angiotensin+II+receptor&column=ki&startPg=0&Increment=50&submit=Search

>  <Ligand HET ID in PDB>  (1) 


>  <PDB ID(s) for Ligand-Target Complex>  (1) 


>  <PubChem CID of Ligand>  (1) 
9888876

>  <PubChem SID of Ligand>  (1) 
104126111

>  <ChEBI ID of Ligand>  (1) 


>  <ChEMBL ID of Ligand>  (1) 
CHEMBL15606

>  <DrugBank ID of Ligand>  (1) 


>  <IUPHAR_GRAC ID of Ligand>  (1) 


>  <KEGG ID of Ligand>  (1) 


>  <ZINC ID of Ligand>  (1) 
ZINC11687668

>  <Number of Protein Chains in Target (bigger than 1 implies a multichain complex)>  (1) 
1

>  <BindingDB Target Chain Sequence>  (1) 
MMLNSSTEDGIKRIQDDCPKAGRHNYIFVMIPTLYSIIFVVGIFGNSLAVIVIYFYMKLKTVASVFLLNLALADLCFLLTLPLWAVYTAMEYRWPFGNYLCKIASASVSFNLYASVFLLTCLSIDRYLAIVHPMKSRLRRTMLVAKVTCIIIWLLAGLASLPAIIHRNVFFIENTNITVCAFHYESQNSTLPIGLGLTKNILGFLFPFLIILTSYTLIWKALKKAYEIQKNKPRNDDIFKIIMAIVLFFFFSWVPHQIFTFLDVLIQLGVIHDCRIADIVDTAMPITICIAYFNNCLNPLFYGFLGKKFKKYFLQLLKYIPPKAKSHSNLSTKMSTLSYRPSDNVSSSSKKPVPCFEVE

>  <PDB ID(s) of Target Chain>  (1) 
6DO1,6OS0,6OS1,6OS2

>  <UniProt (SwissProt) Recommended Name of Target Chain>  (1) 
Type-1 angiotensin II receptor

>  <UniProt (SwissProt) Entry Name of Target Chain>  (1) 
AGTR1_RABIT

>  <UniProt (SwissProt) Primary ID of Target Chain>  (1) 
P34976

>  <UniProt (SwissProt) Secondary ID(s) of Target Chain>  (1) 


>  <UniProt (SwissProt) Alternative ID(s) of Target Chain>  (1) 


>  <UniProt (TrEMBL) Submitted Name of Target Chain>  (1) 


>  <UniProt (TrEMBL) Entry Name of Target Chain>  (1) 


>  <UniProt (TrEMBL) Primary ID of Target Chain>  (1) 


>  <UniProt (TrEMBL) Secondary ID(s) of Target Chain>  (1) 


>  <UniProt (TrEMBL) Alternative ID(s) of Target Chain>  (1) 


$$$$
