
     RDKit          2D

 33 37  0  0  0  0  0  0  0  0999 V2000
    8.3624   -9.1860    0.0000 N   0  0  0  0  0  0  0  0  0  0  0  0
    9.0756   -8.7725    0.0000 C   0  0  0  0  0  0  0  0  0  0  0  0
    9.0722   -7.9410    0.0000 C   0  0  0  0  0  0  0  0  0  0  0  0
    8.3603   -7.5324    0.0000 C   0  0  0  0  0  0  0  0  0  0  0  0
    7.6462   -8.7731    0.0000 C   0  0  0  0  0  0  0  0  0  0  0  0
    7.6431   -7.9483    0.0000 C   0  0  0  0  0  0  0  0  0  0  0  0
    6.8576   -7.6964    0.0000 N   0  0  0  0  0  0  0  0  0  0  0  0
    6.3754   -8.3655    0.0000 C   0  0  0  0  0  0  0  0  0  0  0  0
    6.8627   -9.0309    0.0000 N   0  0  0  0  0  0  0  0  0  0  0  0
    5.5502   -8.3687    0.0000 C   0  0  0  0  0  0  0  0  0  0  0  0
    5.1349   -7.6558    0.0000 C   0  0  0  0  0  0  0  0  0  0  0  0
    8.3584   -6.7072    0.0000 C   0  0  0  0  0  0  0  0  0  0  0  0
    9.7913   -9.1830    0.0000 C   0  0  0  0  0  0  0  0  0  0  0  0
    6.8532   -9.8527    0.0000 C   0  0  0  0  0  0  0  0  0  0  0  0
    7.5629  -10.2735    0.0000 C   0  0  0  0  0  0  0  0  0  0  0  0
    7.5496  -11.0967    0.0000 C   0  0  0  0  0  0  0  0  0  0  0  0
    8.2586  -11.5223    0.0000 C   0  0  0  0  0  0  0  0  0  0  0  0
    8.2763   -9.8668    0.0000 C   0  0  0  0  0  0  0  0  0  0  0  0
    8.9858  -10.2837    0.0000 C   0  0  0  0  0  0  0  0  0  0  0  0
    8.9820  -11.1086    0.0000 C   0  0  0  0  0  0  0  0  0  0  0  0
    9.7653  -11.3672    0.0000 N   0  0  0  0  0  0  0  0  0  0  0  0
   10.2534  -10.7021    0.0000 C   0  0  0  0  0  0  0  0  0  0  0  0
    9.7716  -10.0325    0.0000 C   0  0  0  0  0  0  0  0  0  0  0  0
    9.7556  -12.1922    0.0000 C   0  0  0  0  0  0  0  0  0  0  0  0
   10.4653  -12.6130    0.0000 C   0  0  0  0  0  0  0  0  0  0  0  0
   10.4520  -13.4361    0.0000 C   0  0  0  0  0  0  0  0  0  0  0  0
   11.1608  -13.8570    0.0000 C   0  0  0  0  0  0  0  0  0  0  0  0
   11.8812  -13.4528    0.0000 C   0  0  0  0  0  0  0  0  0  0  0  0
   11.8883  -12.6234    0.0000 C   0  0  0  0  0  0  0  0  0  0  0  0
   11.1787  -12.2064    0.0000 C   0  0  0  0  0  0  0  0  0  0  0  0
   11.1843  -11.3812    0.0000 C   0  0  0  0  0  0  0  0  0  0  0  0
    9.0362  -12.5963    0.0000 O   0  0  0  0  0  0  0  0  0  0  0  0
   11.1777  -10.5516    0.0000 N   0  0  0  0  0  0  0  0  0  0  0  0
 15 16  2  0
  6  7  1  0
 16 17  1  0
 17 20  2  0
  7  8  2  0
 19 18  2  0
 18 15  1  0
 19 20  1  0
  8  9  1  0
  9  5  1  0
  4  6  1  0
  8 10  1  0
  5  6  2  0
 20 21  1  0
 21 22  1  0
 22 23  1  0
 23 19  1  0
 10 11  1  0
 21 24  1  0
  1  2  2  0
 24 25  1  0
  4 12  1  0
 25 26  2  0
  5  1  1  0
 26 27  1  0
  2 13  1  0
 27 28  2  0
  2  3  1  0
 28 29  1  0
  9 14  1  0
 29 30  2  0
 30 25  1  0
 30 31  1  0
 14 15  1  0
 24 32  2  0
  3  4  2  0
 31 33  3  0
M  END
>  <From>  (1) 
www.bindingDB.org

>  <BindingDB Reactant_set_id>  (1) 
50062111

>  <Ligand InChI>  (1) 
InChI=1S/C27H25N5O/c1-4-24-30-25-17(2)13-18(3)29-26(25)32(24)16-19-9-10-23-20(14-19)11-12-31(23)27(33)22-8-6-5-7-21(22)15-28/h5-10,13-14H,4,11-12,16H2,1-3H3

>  <Ligand InChI Key>  (1) 
MWLIILCWIIOLDI-UHFFFAOYSA-N

>  <BindingDB MonomerID>  (1) 
50043443

>  <BindingDB Ligand Name>  (1) 
2-[5-(2-Ethyl-5,7-dimethyl-3H-imidazo[4,5-b]pyridin-4-ylmethyl)-2,3-dihydro-indole-1-carbonyl]-benzonitrile::CHEMBL135522

>  <Target Name>  (1) 
Type-1 angiotensin II receptor

>  <Target Source Organism According to Curator or DataSource>  (1) 
Oryctolagus cuniculus

>  <Ki (nM)>  (1) 


>  <IC50 (nM)>  (1) 
 670

>  <Kd (nM)>  (1) 


>  <EC50 (nM)>  (1) 


>  <kon (M-1-s-1)>  (1) 


>  <koff (s-1)>  (1) 


>  <pH>  (1) 


>  <Temp C>  (1) 


>  <Curation/DataSource>  (1) 
ChEMBL

>  <Article DOI>  (1) 
10.1021/jm00078a013

>  <BindingDB Entry DOI>  (1) 
10.7270/Q26M35X0

>  <PMID>  (1) 
8277505

>  <PubChem AID>  (1) 


>  <Patent Number>  (1) 


>  <Authors>  (1) 
Dhanoa, DS; Bagley, SW; Chang, RS; Lotti, VJ; Chen, TB; Kivlighn, SD; Zingaro, GJ; Siegl, PK; Patchett, AA; Greenlee, WJ

>  <Institution>  (1) 
Merck Research Laboratories

>  <Link to Ligand in BindingDB>  (1) 
http://www.bindingdb.org/bind/chemsearch/marvin/MolStructure.jsp?monomerid=50043443

>  <Link to Ligand-Target Pair in BindingDB>  (1) 
http://www.bindingdb.org/jsp/dbsearch/PrimarySearch_ki.jsp?energyterm=kJ/mole&tag=r21&monomerid=50043443&enzyme=Type-1+angiotensin+II+receptor&column=ki&startPg=0&Increment=50&submit=Search

>  <Ligand HET ID in PDB>  (1) 


>  <PDB ID(s) for Ligand-Target Complex>  (1) 


>  <PubChem CID of Ligand>  (1) 
10048602

>  <PubChem SID of Ligand>  (1) 
103974871

>  <ChEBI ID of Ligand>  (1) 


>  <ChEMBL ID of Ligand>  (1) 
CHEMBL135522

>  <DrugBank ID of Ligand>  (1) 


>  <IUPHAR_GRAC ID of Ligand>  (1) 


>  <KEGG ID of Ligand>  (1) 


>  <ZINC ID of Ligand>  (1) 
ZINC13732401

>  <Number of Protein Chains in Target (bigger than 1 implies a multichain complex)>  (1) 
1

>  <BindingDB Target Chain Sequence>  (1) 
MMLNSSTEDGIKRIQDDCPKAGRHNYIFVMIPTLYSIIFVVGIFGNSLAVIVIYFYMKLKTVASVFLLNLALADLCFLLTLPLWAVYTAMEYRWPFGNYLCKIASASVSFNLYASVFLLTCLSIDRYLAIVHPMKSRLRRTMLVAKVTCIIIWLLAGLASLPAIIHRNVFFIENTNITVCAFHYESQNSTLPIGLGLTKNILGFLFPFLIILTSYTLIWKALKKAYEIQKNKPRNDDIFKIIMAIVLFFFFSWVPHQIFTFLDVLIQLGVIHDCRIADIVDTAMPITICIAYFNNCLNPLFYGFLGKKFKKYFLQLLKYIPPKAKSHSNLSTKMSTLSYRPSDNVSSSSKKPVPCFEVE

>  <PDB ID(s) of Target Chain>  (1) 
6DO1,6OS0,6OS1,6OS2

>  <UniProt (SwissProt) Recommended Name of Target Chain>  (1) 
Type-1 angiotensin II receptor

>  <UniProt (SwissProt) Entry Name of Target Chain>  (1) 
AGTR1_RABIT

>  <UniProt (SwissProt) Primary ID of Target Chain>  (1) 
P34976

>  <UniProt (SwissProt) Secondary ID(s) of Target Chain>  (1) 


>  <UniProt (SwissProt) Alternative ID(s) of Target Chain>  (1) 


>  <UniProt (TrEMBL) Submitted Name of Target Chain>  (1) 


>  <UniProt (TrEMBL) Entry Name of Target Chain>  (1) 


>  <UniProt (TrEMBL) Primary ID of Target Chain>  (1) 


>  <UniProt (TrEMBL) Secondary ID(s) of Target Chain>  (1) 


>  <UniProt (TrEMBL) Alternative ID(s) of Target Chain>  (1) 


$$$$
