
     RDKit          2D

 38 41  0  0  0  0  0  0  0  0999 V2000
    7.1000   -3.7292    0.0000 N   0  0  0  0  0  0  0  0  0  0  0  0
    7.0917   -2.3792    0.0000 N   0  0  0  0  0  0  0  0  0  0  0  0
    6.3042   -3.4750    0.0000 C   0  0  0  0  0  0  0  0  0  0  0  0
    7.5792   -3.0542    0.0000 C   0  0  0  0  0  0  0  0  0  0  0  0
    6.3042   -2.6417    0.0000 C   0  0  0  0  0  0  0  0  0  0  0  0
    5.4292   -7.7542    0.0000 C   0  0  0  0  0  0  0  0  0  0  0  0
    4.8792   -8.3667    0.0000 C   0  0  0  0  0  0  0  0  0  0  0  0
    6.2417   -7.9167    0.0000 C   0  0  0  0  0  0  0  0  0  0  0  0
    5.5875   -3.8875    0.0000 N   0  0  0  0  0  0  0  0  0  0  0  0
    7.3542   -4.5042    0.0000 C   0  0  0  0  0  0  0  0  0  0  0  0
    5.1667   -6.9667    0.0000 O   0  0  0  0  0  0  0  0  0  0  0  0
    4.0792   -8.2042    0.0000 C   0  0  0  0  0  0  0  0  0  0  0  0
    5.5875   -2.2292    0.0000 C   0  0  0  0  0  0  0  0  0  0  0  0
    6.7875   -7.3042    0.0000 O   0  0  0  0  0  0  0  0  0  0  0  0
    5.7167   -6.3542    0.0000 C   0  0  0  0  0  0  0  0  0  0  0  0
    6.8125   -5.1250    0.0000 C   0  0  0  0  0  0  0  0  0  0  0  0
    6.5000   -8.7042    0.0000 O   0  0  0  0  0  0  0  0  0  0  0  0
    8.4042   -3.0417    0.0000 C   0  0  0  0  0  0  0  0  0  0  0  0
    4.8750   -3.4750    0.0000 C   0  0  0  0  0  0  0  0  0  0  0  0
    6.5292   -6.5167    0.0000 C   0  0  0  0  0  0  0  0  0  0  0  0
    5.4542   -5.5750    0.0000 C   0  0  0  0  0  0  0  0  0  0  0  0
    7.0750   -5.9042    0.0000 C   0  0  0  0  0  0  0  0  0  0  0  0
    6.0042   -4.9542    0.0000 C   0  0  0  0  0  0  0  0  0  0  0  0
    3.8167   -7.4250    0.0000 O   0  0  0  0  0  0  0  0  0  0  0  0
    5.1500   -9.1542    0.0000 C   0  0  0  0  0  0  0  0  0  0  0  0
    4.8750   -2.6500    0.0000 C   0  0  0  0  0  0  0  0  0  0  0  0
    5.5792   -1.4042    0.0000 C   0  0  0  0  0  0  0  0  0  0  0  0
    3.5292   -8.8167    0.0000 C   0  0  0  0  0  0  0  0  0  0  0  0
    3.0125   -7.2542    0.0000 C   0  0  0  0  0  0  0  0  0  0  0  0
    8.8250   -3.7542    0.0000 C   0  0  0  0  0  0  0  0  0  0  0  0
    2.7500   -6.4750    0.0000 C   0  0  0  0  0  0  0  0  0  0  0  0
    0.8750   -5.3542    0.0000 C   0  0  0  0  0  0  0  0  0  0  0  0
    1.6792   -5.5250    0.0000 C   0  0  0  0  0  0  0  0  0  0  0  0
    1.9417   -6.3042    0.0000 C   0  0  0  0  0  0  0  0  0  0  0  0
    4.5917   -9.7667    0.0000 C   0  0  0  0  0  0  0  0  0  0  0  0
    9.6500   -3.7542    0.0000 C   0  0  0  0  0  0  0  0  0  0  0  0
    0.6167   -4.5750    0.0000 C   0  0  0  0  0  0  0  0  0  0  0  0
    3.7875   -9.6042    0.0000 C   0  0  0  0  0  0  0  0  0  0  0  0
  2  4  2  0
  3  1  1  0
  4  1  1  0
  5  3  2  0
  6 11  1  0
  7  6  1  0
  8  6  1  0
  9  3  1  0
 10  1  1  0
 11 15  1  0
 12  7  2  0
 13  5  1  0
 14  8  2  0
 15 21  2  0
 16 10  1  0
 17  8  1  0
 18  4  1  0
 19  9  2  0
 20 22  2  0
 21 23  1  0
 22 16  1  0
 23 16  2  0
 24 12  1  0
 25  7  1  0
 26 19  1  0
 27 13  1  0
 28 12  1  0
 29 24  1  0
 30 18  1  0
 31 29  1  0
 32 33  1  0
 33 34  1  0
 34 31  1  0
 35 25  2  0
 36 30  1  0
 37 32  1  0
 38 35  1  0
  2  5  1  0
 15 20  1  0
 13 26  2  0
 28 38  2  0
M  END
>  <From>  (1) 
www.bindingDB.org

>  <BindingDB Reactant_set_id>  (1) 
50004227

>  <Ligand InChI>  (1) 
InChI=1S/C31H37N3O4/c1-4-6-7-10-20-37-26-13-9-8-12-25(26)29(31(35)36)38-24-16-14-23(15-17-24)21-34-27(11-5-2)33-28-22(3)18-19-32-30(28)34/h8-9,12-19,29H,4-7,10-11,20-21H2,1-3H3,(H,35,36)

>  <Ligand InChI Key>  (1) 
SSVGDFLGOLHOEM-UHFFFAOYSA-N

>  <BindingDB MonomerID>  (1) 
50285347

>  <BindingDB Ligand Name>  (1) 
(2-Hexyloxy-phenyl)-[4-(7-methyl-2-propyl-imidazo[4,5-b]pyridin-3-ylmethyl)-phenoxy]-acetic acid::CHEMBL41566

>  <Target Name>  (1) 
Type-1 angiotensin II receptor

>  <Target Source Organism According to Curator or DataSource>  (1) 
Oryctolagus cuniculus

>  <Ki (nM)>  (1) 


>  <IC50 (nM)>  (1) 
 80

>  <Kd (nM)>  (1) 


>  <EC50 (nM)>  (1) 


>  <kon (M-1-s-1)>  (1) 


>  <koff (s-1)>  (1) 


>  <pH>  (1) 


>  <Temp C>  (1) 


>  <Curation/DataSource>  (1) 
ChEMBL

>  <Article DOI>  (1) 
10.1016/0960-894X(94)00476-V

>  <BindingDB Entry DOI>  (1) 
10.7270/Q26H4HC9

>  <PMID>  (1) 


>  <PubChem AID>  (1) 


>  <Patent Number>  (1) 


>  <Authors>  (1) 
Fitch, KJ; Walsh, TF; Patchett, AA; Chang, RS; Siegl, PK; Faust, KA; Chen, TB; Lotti, VJ; Kivlighn, SD; Zingaro, GJ; Greenlee, WJ

>  <Institution>  (1) 
TBA

>  <Link to Ligand in BindingDB>  (1) 
http://www.bindingdb.org/bind/chemsearch/marvin/MolStructure.jsp?monomerid=50285347

>  <Link to Ligand-Target Pair in BindingDB>  (1) 
http://www.bindingdb.org/jsp/dbsearch/PrimarySearch_ki.jsp?energyterm=kJ/mole&tag=r21&monomerid=50285347&enzyme=Type-1+angiotensin+II+receptor&column=ki&startPg=0&Increment=50&submit=Search

>  <Ligand HET ID in PDB>  (1) 


>  <PDB ID(s) for Ligand-Target Complex>  (1) 


>  <PubChem CID of Ligand>  (1) 
15287893

>  <PubChem SID of Ligand>  (1) 
104126918

>  <ChEBI ID of Ligand>  (1) 


>  <ChEMBL ID of Ligand>  (1) 
CHEMBL41566

>  <DrugBank ID of Ligand>  (1) 


>  <IUPHAR_GRAC ID of Ligand>  (1) 


>  <KEGG ID of Ligand>  (1) 


>  <ZINC ID of Ligand>  (1) 
ZINC29339927

>  <Number of Protein Chains in Target (bigger than 1 implies a multichain complex)>  (1) 
1

>  <BindingDB Target Chain Sequence>  (1) 
MMLNSSTEDGIKRIQDDCPKAGRHNYIFVMIPTLYSIIFVVGIFGNSLAVIVIYFYMKLKTVASVFLLNLALADLCFLLTLPLWAVYTAMEYRWPFGNYLCKIASASVSFNLYASVFLLTCLSIDRYLAIVHPMKSRLRRTMLVAKVTCIIIWLLAGLASLPAIIHRNVFFIENTNITVCAFHYESQNSTLPIGLGLTKNILGFLFPFLIILTSYTLIWKALKKAYEIQKNKPRNDDIFKIIMAIVLFFFFSWVPHQIFTFLDVLIQLGVIHDCRIADIVDTAMPITICIAYFNNCLNPLFYGFLGKKFKKYFLQLLKYIPPKAKSHSNLSTKMSTLSYRPSDNVSSSSKKPVPCFEVE

>  <PDB ID(s) of Target Chain>  (1) 
6DO1,6OS0,6OS1,6OS2

>  <UniProt (SwissProt) Recommended Name of Target Chain>  (1) 
Type-1 angiotensin II receptor

>  <UniProt (SwissProt) Entry Name of Target Chain>  (1) 
AGTR1_RABIT

>  <UniProt (SwissProt) Primary ID of Target Chain>  (1) 
P34976

>  <UniProt (SwissProt) Secondary ID(s) of Target Chain>  (1) 


>  <UniProt (SwissProt) Alternative ID(s) of Target Chain>  (1) 


>  <UniProt (TrEMBL) Submitted Name of Target Chain>  (1) 


>  <UniProt (TrEMBL) Entry Name of Target Chain>  (1) 


>  <UniProt (TrEMBL) Primary ID of Target Chain>  (1) 


>  <UniProt (TrEMBL) Secondary ID(s) of Target Chain>  (1) 


>  <UniProt (TrEMBL) Alternative ID(s) of Target Chain>  (1) 


$$$$
