
     RDKit          2D

 42 48  0  0  1  0  0  0  0  0999 V2000
    6.2917    0.7208    0.0000 N   0  0  0  0  0  0  0  0  0  0  0  0
    5.5792    0.3083    0.0000 C   0  0  0  0  0  0  0  0  0  0  0  0
    4.8667    0.7208    0.0000 C   0  0  0  0  0  0  0  0  0  0  0  0
    2.6417   -0.5167    0.0000 N   0  0  0  0  0  0  0  0  0  0  0  0
    6.2917    1.5458    0.0000 C   0  0  0  0  0  0  0  0  0  0  0  0
    5.5792    1.9625    0.0000 N   0  0  0  0  0  0  0  0  0  0  0  0
    8.4292   -2.9792    0.0000 C   0  0  0  0  0  0  0  0  0  0  0  0
    9.3167   -1.9917    0.0000 N   0  0  0  0  0  0  0  0  0  0  0  0
    8.5167   -2.1625    0.0000 N   0  0  0  0  0  0  0  0  0  0  0  0
    9.7292   -2.7042    0.0000 N   0  0  0  0  0  0  0  0  0  0  0  0
    1.8292   -0.6917    0.0000 O   0  0  0  0  0  0  0  0  0  0  0  0
    2.7292    0.3000    0.0000 C   0  0  0  0  0  0  0  0  0  0  0  0
    4.8667    1.5458    0.0000 C   0  0  0  0  0  0  0  0  0  0  0  0
    3.4417    0.7208    0.0000 C   0  0  0  0  0  0  0  0  0  0  0  0
    4.1542    0.3083    0.0000 C   0  0  0  0  0  0  0  0  0  0  0  0
    9.1792   -3.3167    0.0000 N   0  0  0  0  0  0  0  0  0  0  0  0
    1.9667    0.6458    0.0000 C   0  0  0  0  0  0  0  0  0  0  0  0
    7.7167   -3.4000    0.0000 C   0  0  0  0  0  0  0  0  0  0  0  0
    1.4167    0.0250    0.0000 C   0  0  0  0  0  0  0  0  0  0  0  0
    7.0042   -2.9917    0.0000 C   0  0  0  0  0  0  0  0  0  0  0  0
    7.0042    0.3083    0.0000 C   0  0  0  0  0  0  0  0  0  0  0  0
    5.5792   -0.5167    0.0000 O   0  0  0  0  0  0  0  0  0  0  0  0
    7.0042   -2.1667    0.0000 C   0  0  0  0  0  0  0  0  0  0  0  0
    3.4417    1.5458    0.0000 C   0  0  0  0  0  0  0  0  0  0  0  0
    4.1542    1.9583    0.0000 C   0  0  0  0  0  0  0  0  0  0  0  0
    7.7167   -1.7542    0.0000 C   0  0  0  0  0  0  0  0  0  0  0  0
    6.2917   -1.7542    0.0000 C   0  0  0  0  0  0  0  0  0  0  0  0
    7.0042   -0.5167    0.0000 C   0  0  0  0  0  0  0  0  0  0  0  0
    3.2542   -1.0667    0.0000 C   0  0  0  0  0  0  0  0  0  0  0  0
    7.0167    1.9583    0.0000 C   0  0  0  0  0  0  0  0  0  0  0  0
    7.7167   -0.9292    0.0000 C   0  0  0  0  0  0  0  0  0  0  0  0
    6.2917   -0.9292    0.0000 C   0  0  0  0  0  0  0  0  0  0  0  0
    1.5542    1.3583    0.0000 C   0  0  0  0  0  0  0  0  0  0  0  0
    0.6667    0.3583    0.0000 C   0  0  0  0  0  0  0  0  0  0  0  0
    7.7167   -4.2250    0.0000 C   0  0  0  0  0  0  0  0  0  0  0  0
    6.2917   -3.4000    0.0000 C   0  0  0  0  0  0  0  0  0  0  0  0
    0.7417    1.1833    0.0000 C   0  0  0  0  0  0  0  0  0  0  0  0
    7.7292    1.5458    0.0000 C   0  0  0  0  0  0  0  0  0  0  0  0
    8.4417    1.9583    0.0000 C   0  0  0  0  0  0  0  0  0  0  0  0
    6.2917   -4.2250    0.0000 C   0  0  0  0  0  0  0  0  0  0  0  0
    7.0042   -4.6417    0.0000 C   0  0  0  0  0  0  0  0  0  0  0  0
    9.1542    1.5375    0.0000 C   0  0  0  0  0  0  0  0  0  0  0  0
  2  1  1  0
  3  2  1  0
 12  4  1  0
  5  1  1  0
  6  5  2  0
  7 18  1  0
  8  9  1  0
  9  7  1  0
 10 16  1  0
 11  4  1  0
 12 14  1  6
 13  6  1  0
 14 15  1  0
 15  3  2  0
 16  7  2  0
 17 12  1  0
 18 20  1  0
 17 19  1  0
 20 23  1  0
 21  1  1  0
 22  2  2  0
 23 27  2  0
 24 25  1  0
 25 13  2  0
 26 31  2  0
 27 32  1  0
 28 21  1  0
 29  4  1  0
 30  5  1  0
 31 28  1  0
 32 28  2  0
 17 33  1  1
 19 34  1  1
 35 18  2  0
 36 20  2  0
 37 33  1  0
 38 30  1  0
 39 38  1  0
 40 36  1  0
 41 40  2  0
 42 39  1  0
 13  3  1  0
 26 23  1  0
 24 14  2  0
 19 11  1  0
 37 34  1  0
 41 35  1  0
 10  8  2  0
M  END
>  <From>  (1) 
www.bindingDB.org

>  <BindingDB Reactant_set_id>  (1) 
50468494

>  <Ligand InChI>  (1) 
InChI=1S/C33H35N7O2/c1-3-4-12-30-34-28-18-17-23(31-26-10-7-11-29(26)42-39(31)2)19-27(28)33(41)40(30)20-21-13-15-22(16-14-21)24-8-5-6-9-25(24)32-35-37-38-36-32/h5-6,8-9,13-19,26,29,31H,3-4,7,10-12,20H2,1-2H3,(H,35,36,37,38)/t26-,29+,31+/m1/s1

>  <Ligand InChI Key>  (1) 
HFSBXIQXFLGAIT-ZVAUBVARSA-N

>  <BindingDB MonomerID>  (1) 
50282895

>  <BindingDB Ligand Name>  (1) 
2-Butyl-6-((3R,3aS,6aS)-2-methyl-hexahydro-cyclopenta[d]isoxazol-3-yl)-3-[2'-(1H-tetrazol-5-yl)-biphenyl-4-ylmethyl]-3H-quinazolin-4-one::CHEMBL52791

>  <Target Name>  (1) 
Type-1 angiotensin II receptor

>  <Target Source Organism According to Curator or DataSource>  (1) 
Bos taurus

>  <Ki (nM)>  (1) 


>  <IC50 (nM)>  (1) 
 98

>  <Kd (nM)>  (1) 


>  <EC50 (nM)>  (1) 


>  <kon (M-1-s-1)>  (1) 


>  <koff (s-1)>  (1) 


>  <pH>  (1) 


>  <Temp C>  (1) 


>  <Curation/DataSource>  (1) 
ChEMBL

>  <Article DOI>  (1) 
10.1016/S0960-894X(01)80377-2

>  <BindingDB Entry DOI>  (1) 
10.7270/Q21V5DXH

>  <PMID>  (1) 


>  <PubChem AID>  (1) 


>  <Patent Number>  (1) 


>  <Authors>  (1) 
Levin, JI; Venkatesan, AM; Chan, PS; Bailey, TK; Vice, G; Coupet, J

>  <Institution>  (1) 
TBA

>  <Link to Ligand in BindingDB>  (1) 
http://www.bindingdb.org/bind/chemsearch/marvin/MolStructure.jsp?monomerid=50282895

>  <Link to Ligand-Target Pair in BindingDB>  (1) 
http://www.bindingdb.org/jsp/dbsearch/PrimarySearch_ki.jsp?energyterm=kJ/mole&tag=r21&monomerid=50282895&enzyme=Type-1+angiotensin+II+receptor&column=ki&startPg=0&Increment=50&submit=Search

>  <Ligand HET ID in PDB>  (1) 


>  <PDB ID(s) for Ligand-Target Complex>  (1) 


>  <PubChem CID of Ligand>  (1) 
22850888

>  <PubChem SID of Ligand>  (1) 
104124569

>  <ChEBI ID of Ligand>  (1) 


>  <ChEMBL ID of Ligand>  (1) 
CHEMBL52791

>  <DrugBank ID of Ligand>  (1) 


>  <IUPHAR_GRAC ID of Ligand>  (1) 


>  <KEGG ID of Ligand>  (1) 


>  <ZINC ID of Ligand>  (1) 


>  <Number of Protein Chains in Target (bigger than 1 implies a multichain complex)>  (1) 
1

>  <BindingDB Target Chain Sequence>  (1) 
MILNSSTEDGIKRIQDDCPKAGRHNYIFIMIPTLYSIIFVVGIFGNSLVVIVIYFYMKLKTVASVFLLNLALADLCFLLTLPLWAVYTAMEYRWPFGNYLCKIASASVSFNLYASVFLLTCLSIDRYLAIVHPMKSRLRRTMLVAKVTCIIIWLLAGLASLPTIIHRNVFFIENTNITVCAFHYESQNSTLPVGLGLTKNILGFLFPFLIILTSYTLIWKTLKKAYEIQKNKPRKDDIFKIILAIVLFFFFSWVPHQIFTFMDVLIQLGLIRDCKIEDIVDTAMPITICLAYFNNCLNPLFYGFLGKKFKKYFLQLLKYIPPKAKSHSNLSTKMSTLSYRPSENGNSSTKKPAPCIEVE

>  <PDB ID(s) of Target Chain>  (1) 


>  <UniProt (SwissProt) Recommended Name of Target Chain>  (1) 
Type-1 angiotensin II receptor

>  <UniProt (SwissProt) Entry Name of Target Chain>  (1) 
AGTR1_BOVIN

>  <UniProt (SwissProt) Primary ID of Target Chain>  (1) 
P25104

>  <UniProt (SwissProt) Secondary ID(s) of Target Chain>  (1) 


>  <UniProt (SwissProt) Alternative ID(s) of Target Chain>  (1) 


>  <UniProt (TrEMBL) Submitted Name of Target Chain>  (1) 


>  <UniProt (TrEMBL) Entry Name of Target Chain>  (1) 


>  <UniProt (TrEMBL) Primary ID of Target Chain>  (1) 


>  <UniProt (TrEMBL) Secondary ID(s) of Target Chain>  (1) 


>  <UniProt (TrEMBL) Alternative ID(s) of Target Chain>  (1) 


$$$$
