
     RDKit          2D

 45 51  0  0  0  0  0  0  0  0999 V2000
    3.8833   -3.3167    0.0000 N   0  0  0  0  0  0  0  0  0  0  0  0
    3.3958   -2.6500    0.0000 C   0  0  0  0  0  0  0  0  0  0  0  0
    6.7958   -4.3125    0.0000 N   0  0  0  0  0  0  0  0  0  0  0  0
    7.5000   -4.7292    0.0000 N   0  0  0  0  0  0  0  0  0  0  0  0
    3.8833   -1.9792    0.0000 N   0  0  0  0  0  0  0  0  0  0  0  0
    4.6667   -3.0667    0.0000 C   0  0  0  0  0  0  0  0  0  0  0  0
    6.8083   -3.4792    0.0000 C   0  0  0  0  0  0  0  0  0  0  0  0
    4.6083   -7.5583    0.0000 C   0  0  0  0  0  0  0  0  0  0  0  0
    4.0167   -6.9917    0.0000 N   0  0  0  0  0  0  0  0  0  0  0  0
    3.2833   -7.3708    0.0000 N   0  0  0  0  0  0  0  0  0  0  0  0
    7.4875   -5.5583    0.0000 C   0  0  0  0  0  0  0  0  0  0  0  0
    8.2167   -4.3292    0.0000 C   0  0  0  0  0  0  0  0  0  0  0  0
    4.2417   -8.3042    0.0000 N   0  0  0  0  0  0  0  0  0  0  0  0
    4.6708   -2.2417    0.0000 C   0  0  0  0  0  0  0  0  0  0  0  0
    3.4208   -8.1833    0.0000 N   0  0  0  0  0  0  0  0  0  0  0  0
    7.5250   -3.0792    0.0000 C   0  0  0  0  0  0  0  0  0  0  0  0
    8.1917   -5.9833    0.0000 C   0  0  0  0  0  0  0  0  0  0  0  0
    2.5708   -2.6417    0.0000 C   0  0  0  0  0  0  0  0  0  0  0  0
    6.0958   -3.0667    0.0000 C   0  0  0  0  0  0  0  0  0  0  0  0
    5.4208   -7.4208    0.0000 C   0  0  0  0  0  0  0  0  0  0  0  0
    5.3833   -3.4792    0.0000 C   0  0  0  0  0  0  0  0  0  0  0  0
    5.7208   -6.6542    0.0000 C   0  0  0  0  0  0  0  0  0  0  0  0
    8.2292   -3.5042    0.0000 C   0  0  0  0  0  0  0  0  0  0  0  0
    1.8542   -2.2292    0.0000 C   0  0  0  0  0  0  0  0  0  0  0  0
    1.8542   -3.0542    0.0000 C   0  0  0  0  0  0  0  0  0  0  0  0
    3.6208   -4.1000    0.0000 C   0  0  0  0  0  0  0  0  0  0  0  0
    8.1792   -6.8083    0.0000 N   0  0  0  0  0  0  0  0  0  0  0  0
    5.2042   -6.0083    0.0000 C   0  0  0  0  0  0  0  0  0  0  0  0
    8.9333   -4.7542    0.0000 O   0  0  0  0  0  0  0  0  0  0  0  0
    8.9208   -5.5833    0.0000 O   0  0  0  0  0  0  0  0  0  0  0  0
    5.3833   -1.8292    0.0000 C   0  0  0  0  0  0  0  0  0  0  0  0
    6.0958   -2.2417    0.0000 C   0  0  0  0  0  0  0  0  0  0  0  0
    5.5042   -5.2458    0.0000 C   0  0  0  0  0  0  0  0  0  0  0  0
    4.3833   -6.1333    0.0000 C   0  0  0  0  0  0  0  0  0  0  0  0
    4.1708   -4.7167    0.0000 C   0  0  0  0  0  0  0  0  0  0  0  0
    3.8708   -5.4917    0.0000 C   0  0  0  0  0  0  0  0  0  0  0  0
    4.9917   -4.5917    0.0000 C   0  0  0  0  0  0  0  0  0  0  0  0
    8.2375   -2.6625    0.0000 C   0  0  0  0  0  0  0  0  0  0  0  0
    6.8083   -2.6667    0.0000 C   0  0  0  0  0  0  0  0  0  0  0  0
    5.9333   -8.0667    0.0000 C   0  0  0  0  0  0  0  0  0  0  0  0
    6.5333   -6.5292    0.0000 C   0  0  0  0  0  0  0  0  0  0  0  0
    7.4625   -7.2083    0.0000 C   0  0  0  0  0  0  0  0  0  0  0  0
    8.8958   -7.2333    0.0000 C   0  0  0  0  0  0  0  0  0  0  0  0
    7.0458   -7.1708    0.0000 C   0  0  0  0  0  0  0  0  0  0  0  0
    6.7542   -7.9333    0.0000 C   0  0  0  0  0  0  0  0  0  0  0  0
  2  1  1  0
  3  7  2  0
  4  3  1  0
  5  2  2  0
  6  1  1  0
  7 19  1  0
  8 20  1  0
  9  8  1  0
 10  9  2  0
 11  4  1  0
 12 23  1  0
 13  8  2  0
 14  6  2  0
 15 13  1  0
 16  7  1  0
 17 11  1  0
 18  2  1  0
 19 21  2  0
 20 22  1  0
 21  6  1  0
 22 28  1  0
 23 16  1  0
 24 18  1  0
 25 18  1  0
 26  1  1  0
 27 17  1  0
 28 33  2  0
 29 12  2  0
 30 17  2  0
 31 14  1  0
 32 19  1  0
 33 37  1  0
 34 36  2  0
 35 26  1  0
 36 35  1  0
 37 35  2  0
 38 16  1  0
 39 16  1  0
 40 20  2  0
 41 22  2  0
 42 27  1  0
 43 27  1  0
 44 41  1  0
 45 44  2  0
  5 14  1  0
 25 24  1  0
 28 34  1  0
 31 32  2  0
  4 12  1  0
 40 45  1  0
 10 15  1  0
M  CHG  1  15  -1
M  END
>  <From>  (1) 
www.bindingDB.org

>  <BindingDB Reactant_set_id>  (1) 
50983609

>  <Ligand InChI>  (1) 
InChI=1S/C34H34N9O2/c1-34(2)18-29(44)43(20-30(45)41(3)4)38-31(34)24-15-16-27-28(17-24)42(33(35-27)23-13-14-23)19-21-9-11-22(12-10-21)25-7-5-6-8-26(25)32-36-39-40-37-32/h5-12,15-17,23H,13-14,18-20H2,1-4H3/q-1

>  <Ligand InChI Key>  (1) 
IRTIAWJVVCMQPY-UHFFFAOYSA-N

>  <BindingDB MonomerID>  (1) 
50403246

>  <BindingDB Ligand Name>  (1) 
CHEMBL2079787

>  <Target Name>  (1) 
Type-1 angiotensin II receptor

>  <Target Source Organism According to Curator or DataSource>  (1) 
Oryctolagus cuniculus

>  <Ki (nM)>  (1) 


>  <IC50 (nM)>  (1) 
 2

>  <Kd (nM)>  (1) 


>  <EC50 (nM)>  (1) 


>  <kon (M-1-s-1)>  (1) 


>  <koff (s-1)>  (1) 


>  <pH>  (1) 


>  <Temp C>  (1) 


>  <Curation/DataSource>  (1) 
ChEMBL

>  <Article DOI>  (1) 
10.1016/S0960-894X(01)80348-6

>  <BindingDB Entry DOI>  (1) 
10.7270/Q2G44QRD

>  <PMID>  (1) 


>  <PubChem AID>  (1) 


>  <Patent Number>  (1) 


>  <Authors>  (1) 
Dorsch, D; Mederski, WW; Beier, N; Lues, I; Minck, K; Schelling, P

>  <Institution>  (1) 
TBA

>  <Link to Ligand in BindingDB>  (1) 
http://www.bindingdb.org/bind/chemsearch/marvin/MolStructure.jsp?monomerid=50403246

>  <Link to Ligand-Target Pair in BindingDB>  (1) 
http://www.bindingdb.org/jsp/dbsearch/PrimarySearch_ki.jsp?energyterm=kJ/mole&tag=r21&monomerid=50403246&enzyme=Type-1+angiotensin+II+receptor&column=ki&startPg=0&Increment=50&submit=Search

>  <Ligand HET ID in PDB>  (1) 


>  <PDB ID(s) for Ligand-Target Complex>  (1) 


>  <PubChem CID of Ligand>  (1) 
91928455

>  <PubChem SID of Ligand>  (1) 
163352270

>  <ChEBI ID of Ligand>  (1) 


>  <ChEMBL ID of Ligand>  (1) 
CHEMBL2079787

>  <DrugBank ID of Ligand>  (1) 


>  <IUPHAR_GRAC ID of Ligand>  (1) 


>  <KEGG ID of Ligand>  (1) 


>  <ZINC ID of Ligand>  (1) 
ZINC28754783

>  <Number of Protein Chains in Target (bigger than 1 implies a multichain complex)>  (1) 
1

>  <BindingDB Target Chain Sequence>  (1) 
MMLNSSTEDGIKRIQDDCPKAGRHNYIFVMIPTLYSIIFVVGIFGNSLAVIVIYFYMKLKTVASVFLLNLALADLCFLLTLPLWAVYTAMEYRWPFGNYLCKIASASVSFNLYASVFLLTCLSIDRYLAIVHPMKSRLRRTMLVAKVTCIIIWLLAGLASLPAIIHRNVFFIENTNITVCAFHYESQNSTLPIGLGLTKNILGFLFPFLIILTSYTLIWKALKKAYEIQKNKPRNDDIFKIIMAIVLFFFFSWVPHQIFTFLDVLIQLGVIHDCRIADIVDTAMPITICIAYFNNCLNPLFYGFLGKKFKKYFLQLLKYIPPKAKSHSNLSTKMSTLSYRPSDNVSSSSKKPVPCFEVE

>  <PDB ID(s) of Target Chain>  (1) 
6DO1,6OS0,6OS1,6OS2

>  <UniProt (SwissProt) Recommended Name of Target Chain>  (1) 
Type-1 angiotensin II receptor

>  <UniProt (SwissProt) Entry Name of Target Chain>  (1) 
AGTR1_RABIT

>  <UniProt (SwissProt) Primary ID of Target Chain>  (1) 
P34976

>  <UniProt (SwissProt) Secondary ID(s) of Target Chain>  (1) 


>  <UniProt (SwissProt) Alternative ID(s) of Target Chain>  (1) 


>  <UniProt (TrEMBL) Submitted Name of Target Chain>  (1) 


>  <UniProt (TrEMBL) Entry Name of Target Chain>  (1) 


>  <UniProt (TrEMBL) Primary ID of Target Chain>  (1) 


>  <UniProt (TrEMBL) Secondary ID(s) of Target Chain>  (1) 


>  <UniProt (TrEMBL) Alternative ID(s) of Target Chain>  (1) 


$$$$
