
     RDKit          2D

 34 37  0  0  0  0  0  0  0  0999 V2000
    2.1461   -1.8789    0.0000 N   0  0  0  0  0  0  0  0  0  0  0  0
    2.8183   -1.3821    0.0000 C   0  0  0  0  0  0  0  0  0  0  0  0
    1.4823   -1.3904    0.0000 C   0  0  0  0  0  0  0  0  0  0  0  0
    2.5595   -0.6012    0.0000 N   0  0  0  0  0  0  0  0  0  0  0  0
    1.7328   -0.6012    0.0000 N   0  0  0  0  0  0  0  0  0  0  0  0
    5.7285   -3.9457    0.0000 C   0  0  0  0  0  0  0  0  0  0  0  0
    6.4425   -4.3507    0.0000 C   0  0  0  0  0  0  0  0  0  0  0  0
    7.1565   -3.9373    0.0000 C   0  0  0  0  0  0  0  0  0  0  0  0
    7.1440   -3.1106    0.0000 C   0  0  0  0  0  0  0  0  0  0  0  0
    5.0146   -4.3590    0.0000 N   0  0  0  0  0  0  0  0  0  0  0  0
    2.1461   -2.7056    0.0000 C   0  0  0  0  0  0  0  0  0  0  0  0
    3.6450   -1.3821    0.0000 C   0  0  0  0  0  0  0  0  0  0  0  0
    5.7285   -3.1190    0.0000 O   0  0  0  0  0  0  0  0  0  0  0  0
    6.4300   -2.6973    0.0000 O   0  0  0  0  0  0  0  0  0  0  0  0
    0.6556   -1.3904    0.0000 S   0  0  0  0  0  0  0  0  0  0  0  0
    4.2964   -3.9457    0.0000 C   0  0  0  0  0  0  0  0  0  0  0  0
    2.8601   -3.1106    0.0000 C   0  0  0  0  0  0  0  0  0  0  0  0
    7.8580   -2.6931    0.0000 O   0  0  0  0  0  0  0  0  0  0  0  0
    4.0501   -0.6681    0.0000 C   0  0  0  0  0  0  0  0  0  0  0  0
    4.2964   -3.1106    0.0000 C   0  0  0  0  0  0  0  0  0  0  0  0
    3.5866   -4.3507    0.0000 C   0  0  0  0  0  0  0  0  0  0  0  0
    2.8684   -3.9457    0.0000 C   0  0  0  0  0  0  0  0  0  0  0  0
    3.5824   -2.6973    0.0000 C   0  0  0  0  0  0  0  0  0  0  0  0
    6.4425   -5.1774    0.0000 C   0  0  0  0  0  0  0  0  0  0  0  0
    7.8705   -4.3507    0.0000 C   0  0  0  0  0  0  0  0  0  0  0  0
    0.2422   -0.6681    0.0000 C   0  0  0  0  0  0  0  0  0  0  0  0
    4.8768   -0.6681    0.0000 C   0  0  0  0  0  0  0  0  0  0  0  0
    3.6367    0.0459    0.0000 C   0  0  0  0  0  0  0  0  0  0  0  0
    7.8705   -5.1774    0.0000 C   0  0  0  0  0  0  0  0  0  0  0  0
    7.1565   -5.5908    0.0000 C   0  0  0  0  0  0  0  0  0  0  0  0
   -0.5845   -0.6681    0.0000 C   0  0  0  0  0  0  0  0  0  0  0  0
    4.0459    0.7599    0.0000 C   0  0  0  0  0  0  0  0  0  0  0  0
    5.2901    0.0501    0.0000 C   0  0  0  0  0  0  0  0  0  0  0  0
    4.8768    0.7641    0.0000 C   0  0  0  0  0  0  0  0  0  0  0  0
  2  1  1  0
  3  1  1  0
  4  2  2  0
  5  3  2  0
  6 10  1  0
  7  6  1  0
  8  7  2  0
  9  8  1  0
 10 16  1  0
 11  1  1  0
 12  2  1  0
 13  6  2  0
 14  9  2  0
 15  3  1  0
 16 20  2  0
 17 11  1  0
 18  9  1  0
 19 12  1  0
 20 23  1  0
 21 22  2  0
 22 17  1  0
 23 17  2  0
 24  7  1  0
 25  8  1  0
 26 15  1  0
 27 19  2  0
 28 19  1  0
 29 30  1  0
 30 24  2  0
 31 26  1  0
 32 28  2  0
 33 27  1  0
 34 32  1  0
  4  5  1  0
 21 16  1  0
 33 34  2  0
 25 29  2  0
M  END
>  <From>  (1) 
www.bindingDB.org

>  <BindingDB Reactant_set_id>  (1) 
51183571

>  <Ligand InChI>  (1) 
InChI=1S/C26H24N4O3S/c1-2-34-26-29-28-23(16-18-8-4-3-5-9-18)30(26)17-19-12-14-20(15-13-19)27-24(31)21-10-6-7-11-22(21)25(32)33/h3-15H,2,16-17H2,1H3,(H,27,31)(H,32,33)

>  <Ligand InChI Key>  (1) 
XAZOKVYOPNFGTM-UHFFFAOYSA-N

>  <BindingDB MonomerID>  (1) 
50047807

>  <BindingDB Ligand Name>  (1) 
CHEMBL346745::N-[4-(3-Benzyl-5-ethylsulfanyl-[1,2,4]triazol-4-ylmethyl)-phenyl]-phthalamic acid

>  <Target Name>  (1) 
Type-1 angiotensin II receptor

>  <Target Source Organism According to Curator or DataSource>  (1) 
Oryctolagus cuniculus

>  <Ki (nM)>  (1) 


>  <IC50 (nM)>  (1) 
 1000

>  <Kd (nM)>  (1) 


>  <EC50 (nM)>  (1) 


>  <kon (M-1-s-1)>  (1) 


>  <koff (s-1)>  (1) 


>  <pH>  (1) 


>  <Temp C>  (1) 


>  <Curation/DataSource>  (1) 
ChEMBL

>  <Article DOI>  (1) 
10.1007/s00044-011-9756-4

>  <BindingDB Entry DOI>  (1) 
10.7270/Q2833VXQ

>  <PMID>  (1) 


>  <PubChem AID>  (1) 


>  <Patent Number>  (1) 


>  <Authors>  (1) 
n/a

>  <Institution>  (1) 
n/a

>  <Link to Ligand in BindingDB>  (1) 
http://www.bindingdb.org/bind/chemsearch/marvin/MolStructure.jsp?monomerid=50047807

>  <Link to Ligand-Target Pair in BindingDB>  (1) 
http://www.bindingdb.org/jsp/dbsearch/PrimarySearch_ki.jsp?energyterm=kJ/mole&tag=r21&monomerid=50047807&enzyme=Type-1+angiotensin+II+receptor&column=ki&startPg=0&Increment=50&submit=Search

>  <Ligand HET ID in PDB>  (1) 


>  <PDB ID(s) for Ligand-Target Complex>  (1) 


>  <PubChem CID of Ligand>  (1) 
10434949

>  <PubChem SID of Ligand>  (1) 
103978371

>  <ChEBI ID of Ligand>  (1) 


>  <ChEMBL ID of Ligand>  (1) 
CHEMBL346745

>  <DrugBank ID of Ligand>  (1) 


>  <IUPHAR_GRAC ID of Ligand>  (1) 


>  <KEGG ID of Ligand>  (1) 
C06374

>  <ZINC ID of Ligand>  (1) 
ZINC13825597

>  <Number of Protein Chains in Target (bigger than 1 implies a multichain complex)>  (1) 
1

>  <BindingDB Target Chain Sequence>  (1) 
MMLNSSTEDGIKRIQDDCPKAGRHNYIFVMIPTLYSIIFVVGIFGNSLAVIVIYFYMKLKTVASVFLLNLALADLCFLLTLPLWAVYTAMEYRWPFGNYLCKIASASVSFNLYASVFLLTCLSIDRYLAIVHPMKSRLRRTMLVAKVTCIIIWLLAGLASLPAIIHRNVFFIENTNITVCAFHYESQNSTLPIGLGLTKNILGFLFPFLIILTSYTLIWKALKKAYEIQKNKPRNDDIFKIIMAIVLFFFFSWVPHQIFTFLDVLIQLGVIHDCRIADIVDTAMPITICIAYFNNCLNPLFYGFLGKKFKKYFLQLLKYIPPKAKSHSNLSTKMSTLSYRPSDNVSSSSKKPVPCFEVE

>  <PDB ID(s) of Target Chain>  (1) 
6DO1,6OS0,6OS1,6OS2

>  <UniProt (SwissProt) Recommended Name of Target Chain>  (1) 
Type-1 angiotensin II receptor

>  <UniProt (SwissProt) Entry Name of Target Chain>  (1) 
AGTR1_RABIT

>  <UniProt (SwissProt) Primary ID of Target Chain>  (1) 
P34976

>  <UniProt (SwissProt) Secondary ID(s) of Target Chain>  (1) 


>  <UniProt (SwissProt) Alternative ID(s) of Target Chain>  (1) 


>  <UniProt (TrEMBL) Submitted Name of Target Chain>  (1) 


>  <UniProt (TrEMBL) Entry Name of Target Chain>  (1) 


>  <UniProt (TrEMBL) Primary ID of Target Chain>  (1) 


>  <UniProt (TrEMBL) Secondary ID(s) of Target Chain>  (1) 


>  <UniProt (TrEMBL) Alternative ID(s) of Target Chain>  (1) 


$$$$
