
     RDKit          2D

 34 37  0  0  0  0  0  0  0  0999 V2000
    4.0449   -2.3859    0.0000 N   0  0  0  0  0  0  0  0  0  0  0  0
    3.5588   -1.7170    0.0000 C   0  0  0  0  0  0  0  0  0  0  0  0
    3.5588   -3.0415    0.0000 C   0  0  0  0  0  0  0  0  0  0  0  0
    8.4332   -2.8141    0.0000 C   0  0  0  0  0  0  0  0  0  0  0  0
    3.8130   -0.9365    0.0000 C   0  0  0  0  0  0  0  0  0  0  0  0
    8.0185   -1.5565    0.0000 N   0  0  0  0  0  0  0  0  0  0  0  0
    7.7732   -2.3324    0.0000 N   0  0  0  0  0  0  0  0  0  0  0  0
    8.8346   -1.5565    0.0000 N   0  0  0  0  0  0  0  0  0  0  0  0
    2.7694   -1.9667    0.0000 C   0  0  0  0  0  0  0  0  0  0  0  0
    9.0888   -2.3324    0.0000 N   0  0  0  0  0  0  0  0  0  0  0  0
    8.4332   -3.6302    0.0000 C   0  0  0  0  0  0  0  0  0  0  0  0
    2.7694   -2.8007    0.0000 C   0  0  0  0  0  0  0  0  0  0  0  0
    7.7241   -4.0316    0.0000 C   0  0  0  0  0  0  0  0  0  0  0  0
    4.6202   -0.7626    0.0000 C   0  0  0  0  0  0  0  0  0  0  0  0
    4.8699   -2.3859    0.0000 C   0  0  0  0  0  0  0  0  0  0  0  0
    7.0106   -3.6168    0.0000 C   0  0  0  0  0  0  0  0  0  0  0  0
    3.8130   -3.8309    0.0000 O   0  0  0  0  0  0  0  0  0  0  0  0
    5.1688   -1.3780    0.0000 O   0  0  0  0  0  0  0  0  0  0  0  0
    6.2926   -4.0316    0.0000 C   0  0  0  0  0  0  0  0  0  0  0  0
    7.0106   -2.8007    0.0000 C   0  0  0  0  0  0  0  0  0  0  0  0
    5.5835   -2.8007    0.0000 C   0  0  0  0  0  0  0  0  0  0  0  0
    4.8744    0.0223    0.0000 O   0  0  0  0  0  0  0  0  0  0  0  0
    5.5835   -3.6168    0.0000 C   0  0  0  0  0  0  0  0  0  0  0  0
    6.2926   -2.3859    0.0000 C   0  0  0  0  0  0  0  0  0  0  0  0
    2.5465   -1.1640    0.0000 C   0  0  0  0  0  0  0  0  0  0  0  0
    1.9667   -2.1808    0.0000 C   0  0  0  0  0  0  0  0  0  0  0  0
    9.1423   -4.0316    0.0000 C   0  0  0  0  0  0  0  0  0  0  0  0
    7.7241   -4.8611    0.0000 C   0  0  0  0  0  0  0  0  0  0  0  0
    5.6861    0.1962    0.0000 C   0  0  0  0  0  0  0  0  0  0  0  0
    3.1352   -0.5753    0.0000 C   0  0  0  0  0  0  0  0  0  0  0  0
    1.7438   -2.9746    0.0000 C   0  0  0  0  0  0  0  0  0  0  0  0
    9.1289   -4.8699    0.0000 C   0  0  0  0  0  0  0  0  0  0  0  0
    8.4154   -5.2624    0.0000 C   0  0  0  0  0  0  0  0  0  0  0  0
    5.9447    0.9767    0.0000 C   0  0  0  0  0  0  0  0  0  0  0  0
  2  1  1  0
  3  1  1  0
  4 11  1  0
  5  2  2  0
  6  7  1  0
  7  4  1  0
  8 10  1  0
  9  2  1  0
 10  4  2  0
 11 13  1  0
 12  3  1  0
 13 16  1  0
 14  5  1  0
 15  1  1  0
 16 20  2  0
 17  3  2  0
 18 14  2  0
 19 23  2  0
 20 24  1  0
 21 15  1  0
 22 14  1  0
 23 21  1  0
 24 21  2  0
 25  9  1  0
 26  9  1  0
 27 11  2  0
 28 13  2  0
 29 22  1  0
 30 25  1  0
 31 26  1  0
 32 33  2  0
 33 28  1  0
 34 29  1  0
 12  9  1  0
 16 19  1  0
 32 27  1  0
  6  8  2  0
M  END
>  <From>  (1) 
www.bindingDB.org

>  <BindingDB Reactant_set_id>  (1) 
50465995

>  <Ligand InChI>  (1) 
InChI=1S/C26H29N5O3/c1-4-26(5-2)16-23(32)31(22(26)15-24(33)34-6-3)17-18-11-13-19(14-12-18)20-9-7-8-10-21(20)25-27-29-30-28-25/h7-15H,4-6,16-17H2,1-3H3,(H,27,28,29,30)/b22-15-

>  <Ligand InChI Key>  (1) 
JNYGGWPRWHVUGL-JCMHNJIXSA-N

>  <BindingDB MonomerID>  (1) 
50281524

>  <BindingDB Ligand Name>  (1) 
CHEMBL123713::[3,3-Diethyl-5-oxo-1-[2'-(1H-tetrazol-5-yl)-biphenyl-4-ylmethyl]-pyrrolidin-(2Z)-ylidene]-acetic acid ethyl ester

>  <Target Name>  (1) 
Type-1 angiotensin II receptor

>  <Target Source Organism According to Curator or DataSource>  (1) 
Bos taurus

>  <Ki (nM)>  (1) 


>  <IC50 (nM)>  (1) 
 100

>  <Kd (nM)>  (1) 


>  <EC50 (nM)>  (1) 


>  <kon (M-1-s-1)>  (1) 


>  <koff (s-1)>  (1) 


>  <pH>  (1) 


>  <Temp C>  (1) 


>  <Curation/DataSource>  (1) 
ChEMBL

>  <Article DOI>  (1) 
10.1016/S0960-894X(01)80914-8

>  <BindingDB Entry DOI>  (1) 
10.7270/Q20G3K2H

>  <PMID>  (1) 


>  <PubChem AID>  (1) 


>  <Patent Number>  (1) 


>  <Authors>  (1) 
Murray, WV; Lalan, P; Gill, A; Addo, MF; Lewis, JM; Lee, DK; Wachter, MP; Rampulla, R; Underwood, DC

>  <Institution>  (1) 
TBA

>  <Link to Ligand in BindingDB>  (1) 
http://www.bindingdb.org/bind/chemsearch/marvin/MolStructure.jsp?monomerid=50281524

>  <Link to Ligand-Target Pair in BindingDB>  (1) 
http://www.bindingdb.org/jsp/dbsearch/PrimarySearch_ki.jsp?energyterm=kJ/mole&tag=r21&monomerid=50281524&enzyme=Type-1+angiotensin+II+receptor&column=ki&startPg=0&Increment=50&submit=Search

>  <Ligand HET ID in PDB>  (1) 


>  <PDB ID(s) for Ligand-Target Complex>  (1) 


>  <PubChem CID of Ligand>  (1) 
44348352

>  <PubChem SID of Ligand>  (1) 
104123198

>  <ChEBI ID of Ligand>  (1) 


>  <ChEMBL ID of Ligand>  (1) 
CHEMBL123713

>  <DrugBank ID of Ligand>  (1) 


>  <IUPHAR_GRAC ID of Ligand>  (1) 


>  <KEGG ID of Ligand>  (1) 


>  <ZINC ID of Ligand>  (1) 
ZINC27198780

>  <Number of Protein Chains in Target (bigger than 1 implies a multichain complex)>  (1) 
1

>  <BindingDB Target Chain Sequence>  (1) 
MILNSSTEDGIKRIQDDCPKAGRHNYIFIMIPTLYSIIFVVGIFGNSLVVIVIYFYMKLKTVASVFLLNLALADLCFLLTLPLWAVYTAMEYRWPFGNYLCKIASASVSFNLYASVFLLTCLSIDRYLAIVHPMKSRLRRTMLVAKVTCIIIWLLAGLASLPTIIHRNVFFIENTNITVCAFHYESQNSTLPVGLGLTKNILGFLFPFLIILTSYTLIWKTLKKAYEIQKNKPRKDDIFKIILAIVLFFFFSWVPHQIFTFMDVLIQLGLIRDCKIEDIVDTAMPITICLAYFNNCLNPLFYGFLGKKFKKYFLQLLKYIPPKAKSHSNLSTKMSTLSYRPSENGNSSTKKPAPCIEVE

>  <PDB ID(s) of Target Chain>  (1) 


>  <UniProt (SwissProt) Recommended Name of Target Chain>  (1) 
Type-1 angiotensin II receptor

>  <UniProt (SwissProt) Entry Name of Target Chain>  (1) 
AGTR1_BOVIN

>  <UniProt (SwissProt) Primary ID of Target Chain>  (1) 
P25104

>  <UniProt (SwissProt) Secondary ID(s) of Target Chain>  (1) 


>  <UniProt (SwissProt) Alternative ID(s) of Target Chain>  (1) 


>  <UniProt (TrEMBL) Submitted Name of Target Chain>  (1) 


>  <UniProt (TrEMBL) Entry Name of Target Chain>  (1) 


>  <UniProt (TrEMBL) Primary ID of Target Chain>  (1) 


>  <UniProt (TrEMBL) Secondary ID(s) of Target Chain>  (1) 


>  <UniProt (TrEMBL) Alternative ID(s) of Target Chain>  (1) 


$$$$
