
     RDKit          2D

 48 52  0  0  0  0  0  0  0  0999 V2000
    6.7417   -7.4417    0.0000 S   0  0  0  0  0  0  0  0  0  0  0  0
    3.1292   -6.3875    0.0000 N   0  0  0  0  0  0  0  0  0  0  0  0
    3.7750   -5.8667    0.0000 C   0  0  0  0  0  0  0  0  0  0  0  0
    3.4792   -5.1000    0.0000 C   0  0  0  0  0  0  0  0  0  0  0  0
    2.6542   -5.1417    0.0000 N   0  0  0  0  0  0  0  0  0  0  0  0
    2.4417   -5.9375    0.0000 C   0  0  0  0  0  0  0  0  0  0  0  0
    7.5667   -7.4542    0.0000 N   0  0  0  0  0  0  0  0  0  0  0  0
    6.7917   -8.2667    0.0000 C   0  0  0  0  0  0  0  0  0  0  0  0
    4.5667   -6.0875    0.0000 C   0  0  0  0  0  0  0  0  0  0  0  0
    2.8292   -2.2000    0.0000 N   0  0  0  0  0  0  0  0  0  0  0  0
    7.9917   -6.7417    0.0000 C   0  0  0  0  0  0  0  0  0  0  0  0
    6.1000   -8.7167    0.0000 C   0  0  0  0  0  0  0  0  0  0  0  0
    3.9292   -4.4042    0.0000 C   0  0  0  0  0  0  0  0  0  0  0  0
    2.4542   -1.4667    0.0000 C   0  0  0  0  0  0  0  0  0  0  0  0
    3.5625   -3.6750    0.0000 N   0  0  0  0  0  0  0  0  0  0  0  0
    3.1667   -7.2125    0.0000 C   0  0  0  0  0  0  0  0  0  0  0  0
    5.9167   -7.4417    0.0000 O   0  0  0  0  0  0  0  0  0  0  0  0
    6.7417   -6.6167    0.0000 O   0  0  0  0  0  0  0  0  0  0  0  0
    5.3667   -8.3417    0.0000 C   0  0  0  0  0  0  0  0  0  0  0  0
    2.9125   -0.7750    0.0000 N   0  0  0  0  0  0  0  0  0  0  0  0
    3.6500   -2.2500    0.0000 C   0  0  0  0  0  0  0  0  0  0  0  0
    2.3750   -2.8917    0.0000 C   0  0  0  0  0  0  0  0  0  0  0  0
    7.5875   -6.0250    0.0000 O   0  0  0  0  0  0  0  0  0  0  0  0
    4.5667   -6.6375    0.0000 O   0  0  0  0  0  0  0  0  0  0  0  0
    5.3292   -7.5125    0.0000 C   0  0  0  0  0  0  0  0  0  0  0  0
    4.6750   -8.7875    0.0000 C   0  0  0  0  0  0  0  0  0  0  0  0
    4.0167   -2.9875    0.0000 C   0  0  0  0  0  0  0  0  0  0  0  0
    2.7417   -3.6292    0.0000 C   0  0  0  0  0  0  0  0  0  0  0  0
    3.9042   -7.5875    0.0000 C   0  0  0  0  0  0  0  0  0  0  0  0
    5.1542   -5.5042    0.0000 O   0  0  0  0  0  0  0  0  0  0  0  0
    8.8167   -6.7500    0.0000 O   0  0  0  0  0  0  0  0  0  0  0  0
    1.6667   -6.2292    0.0000 C   0  0  0  0  0  0  0  0  0  0  0  0
    3.9417   -8.4125    0.0000 C   0  0  0  0  0  0  0  0  0  0  0  0
    4.5917   -7.1417    0.0000 C   0  0  0  0  0  0  0  0  0  0  0  0
    7.5250   -8.6417    0.0000 C   0  0  0  0  0  0  0  0  0  0  0  0
    6.1417   -9.5417    0.0000 C   0  0  0  0  0  0  0  0  0  0  0  0
    1.6375   -1.4167    0.0000 C   0  0  0  0  0  0  0  0  0  0  0  0
    2.5417   -0.0292    0.0000 C   0  0  0  0  0  0  0  0  0  0  0  0
    9.2375   -6.0375    0.0000 C   0  0  0  0  0  0  0  0  0  0  0  0
    1.0292   -5.7042    0.0000 C   0  0  0  0  0  0  0  0  0  0  0  0
   10.0625   -6.0417    0.0000 C   0  0  0  0  0  0  0  0  0  0  0  0
   10.4792   -5.3375    0.0000 C   0  0  0  0  0  0  0  0  0  0  0  0
    7.5667   -9.4667    0.0000 C   0  0  0  0  0  0  0  0  0  0  0  0
    6.8750   -9.9167    0.0000 C   0  0  0  0  0  0  0  0  0  0  0  0
    1.2667   -0.6792    0.0000 C   0  0  0  0  0  0  0  0  0  0  0  0
    1.7167    0.0125    0.0000 C   0  0  0  0  0  0  0  0  0  0  0  0
    0.2625   -6.0000    0.0000 C   0  0  0  0  0  0  0  0  0  0  0  0
   11.3042   -5.3417    0.0000 C   0  0  0  0  0  0  0  0  0  0  0  0
  2 16  1  0
  3  2  1  0
  4  3  2  0
  5  6  2  0
  6  2  1  0
  7  1  1  0
  8  1  1  0
  9  3  1  0
 10 22  1  0
 11  7  1  0
 12  8  2  0
 13  4  1  0
 14 10  1  0
 15 13  1  0
 16 29  1  0
 17  1  2  0
 18  1  2  0
 19 12  1  0
 20 14  2  0
 21 27  1  0
 22 28  1  0
 23 11  2  0
 24  9  2  0
 25 19  2  0
 26 19  1  0
 27 15  1  0
 28 15  1  0
 29 33  1  0
 30  9  1  0
 31 11  1  0
 32  6  1  0
 33 26  2  0
 34 25  1  0
 35  8  1  0
 36 12  1  0
 37 14  1  0
 38 20  1  0
 39 31  1  0
 40 32  1  0
 41 39  1  0
 42 41  1  0
 43 35  2  0
 44 43  1  0
 45 37  2  0
 46 45  1  0
 47 40  1  0
 48 42  1  0
 44 36  2  0
 29 34  2  0
  5  4  1  0
 10 21  1  0
 46 38  2  0
M  END
>  <From>  (1) 
www.bindingDB.org

>  <BindingDB Reactant_set_id>  (1) 
50469017

>  <Ligand InChI>  (1) 
InChI=1S/C35H42N6O6S/c1-3-5-23-47-35(44)38-48(45,46)30-12-7-6-11-28(30)27-16-14-26(15-17-27)24-41-32(10-4-2)37-29(33(41)34(42)43)25-39-19-21-40(22-20-39)31-13-8-9-18-36-31/h6-9,11-18H,3-5,10,19-25H2,1-2H3,(H,38,44)(H,42,43)

>  <Ligand InChI Key>  (1) 
PSGPBOMLKUNVCB-UHFFFAOYSA-N

>  <BindingDB MonomerID>  (1) 
50283170

>  <BindingDB Ligand Name>  (1) 
1-[4-(2-pentanyloxycarbonylsulfamoylphenyl)benzyl]-2-propyl-4-[4-(2-pyridyl)hexahydro-1-pyrazinylmethyl]-1H-5-imidazolecarboxylic acid::CHEMBL308361

>  <Target Name>  (1) 
Type-1 angiotensin II receptor

>  <Target Source Organism According to Curator or DataSource>  (1) 
Homo sapiens

>  <Ki (nM)>  (1) 


>  <IC50 (nM)>  (1) 
 6

>  <Kd (nM)>  (1) 


>  <EC50 (nM)>  (1) 


>  <kon (M-1-s-1)>  (1) 


>  <koff (s-1)>  (1) 


>  <pH>  (1) 


>  <Temp C>  (1) 


>  <Curation/DataSource>  (1) 
ChEMBL

>  <Article DOI>  (1) 
10.1016/S0960-894X(00)80076-1

>  <BindingDB Entry DOI>  (1) 
10.7270/Q2JQ110M

>  <PMID>  (1) 


>  <PubChem AID>  (1) 


>  <Patent Number>  (1) 


>  <Authors>  (1) 
Olson, RE; Liu, J; Lalka, GK; VanAtten, MK; Wexler, RR; Chiu, AT; Nguyen, TT; McCall, DE; Wong, PC; Timmermans, PB

>  <Institution>  (1) 
TBA

>  <Link to Ligand in BindingDB>  (1) 
http://www.bindingdb.org/bind/chemsearch/marvin/MolStructure.jsp?monomerid=50283170

>  <Link to Ligand-Target Pair in BindingDB>  (1) 
http://www.bindingdb.org/jsp/dbsearch/PrimarySearch_ki.jsp?energyterm=kJ/mole&tag=r21&monomerid=50283170&enzyme=Type-1+angiotensin+II+receptor&column=ki&startPg=0&Increment=50&submit=Search

>  <Ligand HET ID in PDB>  (1) 


>  <PDB ID(s) for Ligand-Target Complex>  (1) 


>  <PubChem CID of Ligand>  (1) 
44311650

>  <PubChem SID of Ligand>  (1) 
104124844

>  <ChEBI ID of Ligand>  (1) 


>  <ChEMBL ID of Ligand>  (1) 
CHEMBL308361

>  <DrugBank ID of Ligand>  (1) 


>  <IUPHAR_GRAC ID of Ligand>  (1) 


>  <KEGG ID of Ligand>  (1) 


>  <ZINC ID of Ligand>  (1) 
ZINC26377960

>  <Number of Protein Chains in Target (bigger than 1 implies a multichain complex)>  (1) 
1

>  <BindingDB Target Chain Sequence>  (1) 
MILNSSTEDGIKRIQDDCPKAGRHNYIFVMIPTLYSIIFVVGIFGNSLVVIVIYFYMKLKTVASVFLLNLALADLCFLLTLPLWAVYTAMEYRWPFGNYLCKIASASVSFNLYASVFLLTCLSIDRYLAIVHPMKSRLRRTMLVAKVTCIIIWLLAGLASLPAIIHRNVFFIENTNITVCAFHYESQNSTLPIGLGLTKNILGFLFPFLIILTSYTLIWKALKKAYEIQKNKPRNDDIFKIIMAIVLFFFFSWIPHQIFTFLDVLIQLGIIRDCRIADIVDTAMPITICIAYFNNCLNPLFYGFLGKKFKRYFLQLLKYIPPKAKSHSNLSTKMSTLSYRPSDNVSSSTKKPAPCFEVE

>  <PDB ID(s) of Target Chain>  (1) 
6DO1,6OS0,6OS1,6OS2

>  <UniProt (SwissProt) Recommended Name of Target Chain>  (1) 
Type-1 angiotensin II receptor

>  <UniProt (SwissProt) Entry Name of Target Chain>  (1) 
AGTR1_HUMAN

>  <UniProt (SwissProt) Primary ID of Target Chain>  (1) 
P30556

>  <UniProt (SwissProt) Secondary ID(s) of Target Chain>  (1) 
Q13725 Q8TBK4

>  <UniProt (SwissProt) Alternative ID(s) of Target Chain>  (1) 


>  <UniProt (TrEMBL) Submitted Name of Target Chain>  (1) 


>  <UniProt (TrEMBL) Entry Name of Target Chain>  (1) 


>  <UniProt (TrEMBL) Primary ID of Target Chain>  (1) 


>  <UniProt (TrEMBL) Secondary ID(s) of Target Chain>  (1) 


>  <UniProt (TrEMBL) Alternative ID(s) of Target Chain>  (1) 


$$$$
