
     RDKit          2D

 37 41  0  0  0  0  0  0  0  0999 V2000
    3.7375   -3.1750    0.0000 C   0  0  0  0  0  0  0  0  0  0  0  0
    2.9500   -3.4167    0.0000 N   0  0  0  0  0  0  0  0  0  0  0  0
    4.4000   -3.6667    0.0000 N   0  0  0  0  0  0  0  0  0  0  0  0
    4.0042   -2.3917    0.0000 S   0  0  0  0  0  0  0  0  0  0  0  0
    5.0750   -3.1917    0.0000 N   0  0  0  0  0  0  0  0  0  0  0  0
    2.3417   -2.8542    0.0000 C   0  0  0  0  0  0  0  0  0  0  0  0
    8.4667   -5.1167    0.0000 C   0  0  0  0  0  0  0  0  0  0  0  0
    8.0500   -3.8500    0.0000 N   0  0  0  0  0  0  0  0  0  0  0  0
    7.7917   -4.6292    0.0000 N   0  0  0  0  0  0  0  0  0  0  0  0
    8.8750   -3.8417    0.0000 N   0  0  0  0  0  0  0  0  0  0  0  0
    4.8292   -2.4042    0.0000 C   0  0  0  0  0  0  0  0  0  0  0  0
    9.1292   -4.6292    0.0000 N   0  0  0  0  0  0  0  0  0  0  0  0
    1.5542   -3.1000    0.0000 C   0  0  0  0  0  0  0  0  0  0  0  0
    8.4750   -5.9417    0.0000 C   0  0  0  0  0  0  0  0  0  0  0  0
    1.3792   -3.9042    0.0000 C   0  0  0  0  0  0  0  0  0  0  0  0
    7.7625   -6.3542    0.0000 C   0  0  0  0  0  0  0  0  0  0  0  0
    1.9667   -4.4875    0.0000 C   0  0  0  0  0  0  0  0  0  0  0  0
    4.3875   -4.4917    0.0000 C   0  0  0  0  0  0  0  0  0  0  0  0
    7.0500   -5.9500    0.0000 C   0  0  0  0  0  0  0  0  0  0  0  0
    2.5292   -2.0542    0.0000 O   0  0  0  0  0  0  0  0  0  0  0  0
    2.7625   -4.2667    0.0000 O   0  0  0  0  0  0  0  0  0  0  0  0
    6.3292   -6.3625    0.0000 C   0  0  0  0  0  0  0  0  0  0  0  0
    7.0500   -5.1167    0.0000 C   0  0  0  0  0  0  0  0  0  0  0  0
    5.6167   -5.1167    0.0000 C   0  0  0  0  0  0  0  0  0  0  0  0
    1.7542   -5.2792    0.0000 O   0  0  0  0  0  0  0  0  0  0  0  0
    6.3292   -4.7042    0.0000 C   0  0  0  0  0  0  0  0  0  0  0  0
    5.6167   -5.9500    0.0000 C   0  0  0  0  0  0  0  0  0  0  0  0
    5.3292   -1.7417    0.0000 C   0  0  0  0  0  0  0  0  0  0  0  0
    0.9542   -2.5417    0.0000 C   0  0  0  0  0  0  0  0  0  0  0  0
    9.1875   -6.3500    0.0000 C   0  0  0  0  0  0  0  0  0  0  0  0
    0.5917   -4.1500    0.0000 C   0  0  0  0  0  0  0  0  0  0  0  0
    7.7625   -7.1792    0.0000 C   0  0  0  0  0  0  0  0  0  0  0  0
    6.1417   -1.8417    0.0000 C   0  0  0  0  0  0  0  0  0  0  0  0
    9.1917   -7.1792    0.0000 C   0  0  0  0  0  0  0  0  0  0  0  0
    0.1667   -2.7792    0.0000 C   0  0  0  0  0  0  0  0  0  0  0  0
   -0.0125   -3.5917    0.0000 C   0  0  0  0  0  0  0  0  0  0  0  0
    8.4792   -7.5917    0.0000 C   0  0  0  0  0  0  0  0  0  0  0  0
  2  1  2  3
  3  1  1  0
  4  1  1  0
  5  3  1  0
  2  6  1  0
  7 14  1  0
  8  9  1  0
  9  7  1  0
 10 12  1  0
 11  4  1  0
 12  7  2  0
 13  6  1  0
 14 16  1  0
 15 13  2  0
 16 19  1  0
 17 15  1  0
 18  3  1  0
 19 22  2  0
 20  6  2  0
 21 17  2  0
 22 27  1  0
 23 26  2  0
 24 18  1  0
 25 17  1  0
 26 24  1  0
 27 24  2  0
 28 11  1  0
 29 13  1  0
 30 14  2  0
 31 15  1  0
 32 16  2  0
 33 28  1  0
 34 37  2  0
 35 29  2  0
 36 35  1  0
 37 32  1  0
  5 11  2  0
 19 23  1  0
 31 36  2  0
 30 34  1  0
 10  8  2  0
M  END
>  <From>  (1) 
www.bindingDB.org

>  <BindingDB Reactant_set_id>  (1) 
50477633

>  <Ligand InChI>  (1) 
InChI=1S/C26H21N7O3S/c1-2-22-30-33(26(37-22)27-24(34)20-9-5-6-10-21(20)25(35)36)15-16-11-13-17(14-12-16)18-7-3-4-8-19(18)23-28-31-32-29-23/h3-14H,2,15H2,1H3,(H,35,36)(H,28,29,31,32)

>  <Ligand InChI Key>  (1) 
SNGOFQULYMNZJN-UHFFFAOYSA-N

>  <BindingDB MonomerID>  (1) 
50287291

>  <BindingDB Ligand Name>  (1) 
CHEMBL35381::N-[5-Ethyl-3-[2'-(1H-tetrazol-5-yl)-biphenyl-4-ylmethyl]-3H-[1,3,4]thiadiazol-(2Z)-ylidene]-phthalamic acid

>  <Target Name>  (1) 
Type-1 angiotensin II receptor B

>  <Target Source Organism According to Curator or DataSource>  (1) 
Rattus

>  <Ki (nM)>  (1) 


>  <IC50 (nM)>  (1) 
 0.660000

>  <Kd (nM)>  (1) 


>  <EC50 (nM)>  (1) 


>  <kon (M-1-s-1)>  (1) 


>  <koff (s-1)>  (1) 


>  <pH>  (1) 


>  <Temp C>  (1) 


>  <Curation/DataSource>  (1) 
ChEMBL

>  <Article DOI>  (1) 
10.1016/S0960-894X(96)00250-8

>  <BindingDB Entry DOI>  (1) 
10.7270/Q2SN08XQ

>  <PMID>  (1) 


>  <PubChem AID>  (1) 


>  <Patent Number>  (1) 


>  <Authors>  (1) 
Hirata, T; Nomiyama, J; Sakae, N; Nishimura, K; Yokomoto, M; Inoue, S; Tamura, K; Okuhira, M; Amano, H; Nagao, Y

>  <Institution>  (1) 
TBA

>  <Link to Ligand in BindingDB>  (1) 
http://www.bindingdb.org/bind/chemsearch/marvin/MolStructure.jsp?monomerid=50287291

>  <Link to Ligand-Target Pair in BindingDB>  (1) 
http://www.bindingdb.org/jsp/dbsearch/PrimarySearch_ki.jsp?energyterm=kJ/mole&tag=r21&monomerid=50287291&enzyme=Type-1+angiotensin+II+receptor+B&column=ki&startPg=0&Increment=50&submit=Search

>  <Ligand HET ID in PDB>  (1) 


>  <PDB ID(s) for Ligand-Target Complex>  (1) 


>  <PubChem CID of Ligand>  (1) 
44282952

>  <PubChem SID of Ligand>  (1) 
104128862

>  <ChEBI ID of Ligand>  (1) 


>  <ChEMBL ID of Ligand>  (1) 
CHEMBL35381

>  <DrugBank ID of Ligand>  (1) 


>  <IUPHAR_GRAC ID of Ligand>  (1) 


>  <KEGG ID of Ligand>  (1) 


>  <ZINC ID of Ligand>  (1) 
ZINC49695465

>  <Number of Protein Chains in Target (bigger than 1 implies a multichain complex)>  (1) 
1

>  <BindingDB Target Chain Sequence>  (1) 
MTLNSSTEDGIKRIQDDCPKAGRHNYIFVMIPTLYSIIFVVGIFGNSLVVIVIYFYMKLKTVASVFLLNLALADLCFLLTLPLWAVYTAMEYRWPFGNHLCKIASASVSFNLYASVFLLTCLSIDRYLAIVHPMKSRLRRTMLVAKVTCIIIWLMAGLASLPAVIYRNVYFIENTNITVCAFHYESQNSTLPIGLGLTKNILGFVFPFLIILTSYTLIWKALKKAYKIQKNTPRNDDIFRIIMAIVLFFFFSWVPHQIFTFLDVLIQLGIIRDCEIADIVDTAMPITICIAYFNNCLNPLFYGFLGKKFKKYFLQLLKYIPPTAKSHAGLSTKMSTLSYRPSDNMSSSAKKSASFFEVE

>  <PDB ID(s) of Target Chain>  (1) 


>  <UniProt (SwissProt) Recommended Name of Target Chain>  (1) 
Type-1 angiotensin II receptor B

>  <UniProt (SwissProt) Entry Name of Target Chain>  (1) 
AGTRB_RAT

>  <UniProt (SwissProt) Primary ID of Target Chain>  (1) 
P29089

>  <UniProt (SwissProt) Secondary ID(s) of Target Chain>  (1) 


>  <UniProt (SwissProt) Alternative ID(s) of Target Chain>  (1) 


>  <UniProt (TrEMBL) Submitted Name of Target Chain>  (1) 


>  <UniProt (TrEMBL) Entry Name of Target Chain>  (1) 


>  <UniProt (TrEMBL) Primary ID of Target Chain>  (1) 


>  <UniProt (TrEMBL) Secondary ID(s) of Target Chain>  (1) 


>  <UniProt (TrEMBL) Alternative ID(s) of Target Chain>  (1) 


$$$$
