
     RDKit          2D

 30 33  0  0  0  0  0  0  0  0999 V2000
   -1.5514  -21.3875    0.0000 C   0  0  0  0  0  0  0  0  0  0  0  0
   -1.5526  -22.2148    0.0000 C   0  0  0  0  0  0  0  0  0  0  0  0
   -0.8378  -22.6277    0.0000 C   0  0  0  0  0  0  0  0  0  0  0  0
   -0.1213  -22.2144    0.0000 C   0  0  0  0  0  0  0  0  0  0  0  0
   -0.1242  -21.3838    0.0000 C   0  0  0  0  0  0  0  0  0  0  0  0
   -0.8396  -20.9747    0.0000 C   0  0  0  0  0  0  0  0  0  0  0  0
   -2.2639  -20.9753    0.0000 C   0  0  0  0  0  0  0  0  0  0  0  0
   -2.2628  -20.1492    0.0000 C   0  0  0  0  0  0  0  0  0  0  0  0
   -2.9765  -19.7369    0.0000 C   0  0  0  0  0  0  0  0  0  0  0  0
   -3.6918  -20.1497    0.0000 C   0  0  0  0  0  0  0  0  0  0  0  0
   -3.6890  -20.9789    0.0000 C   0  0  0  0  0  0  0  0  0  0  0  0
   -2.9747  -21.3874    0.0000 C   0  0  0  0  0  0  0  0  0  0  0  0
   -1.5483  -19.7324    0.0000 C   0  0  0  0  0  0  0  0  0  0  0  0
   -0.7949  -20.0685    0.0000 N   0  0  0  0  0  0  0  0  0  0  0  0
   -0.2424  -19.4559    0.0000 N   0  0  0  0  0  0  0  0  0  0  0  0
   -0.6543  -18.7410    0.0000 N   0  0  0  0  0  0  0  0  0  0  0  0
   -1.4614  -18.9120    0.0000 N   0  0  0  0  0  0  0  0  0  0  0  0
    0.5938  -22.6257    0.0000 N   0  0  0  0  0  0  0  0  0  0  0  0
    0.5986  -23.4491    0.0000 C   0  0  0  0  0  0  0  0  0  0  0  0
   -0.0681  -23.9351    0.0000 C   0  0  0  0  0  0  0  0  0  0  0  0
    0.1881  -24.7193    0.0000 C   0  0  0  0  0  0  0  0  0  0  0  0
    1.0132  -24.7180    0.0000 N   0  0  0  0  0  0  0  0  0  0  0  0
    1.2668  -23.9330    0.0000 N   0  0  0  0  0  0  0  0  0  0  0  0
    2.0510  -23.6768    0.0000 C   0  0  0  0  0  0  0  0  0  0  0  0
    2.6649  -24.2278    0.0000 C   0  0  0  0  0  0  0  0  0  0  0  0
    3.4492  -23.9716    0.0000 C   0  0  0  0  0  0  0  0  0  0  0  0
    4.0631  -24.5226    0.0000 C   0  0  0  0  0  0  0  0  0  0  0  0
   -0.8531  -23.6814    0.0000 C   0  0  0  0  0  0  0  0  0  0  0  0
   -1.0259  -22.8747    0.0000 O   0  0  0  0  0  0  0  0  0  0  0  0
   -1.4653  -24.2344    0.0000 O   0  0  0  0  0  0  0  0  0  0  0  0
  7  8  1  0
 14 15  1  0
 15 16  2  0
 16 17  1  0
 17 13  2  0
  8 13  1  0
  8  9  2  0
  4 18  1  0
 19 20  2  0
  4  5  2  0
  9 10  1  0
  2  3  2  0
 10 11  2  0
  5  6  1  0
 20 21  1  0
 21 22  2  0
 22 23  1  0
 23 19  1  0
 18 19  1  0
 11 12  1  0
 23 24  1  0
 12  7  2  0
 24 25  1  0
  1  7  1  0
 25 26  1  0
 13 14  1  0
 26 27  1  0
  6  1  2  0
 20 28  1  0
  1  2  1  0
 28 29  2  0
  3  4  1  0
 28 30  1  0
M  END
>  <From>  (1) 
www.bindingDB.org

>  <BindingDB Reactant_set_id>  (1) 
50657365

>  <Ligand InChI>  (1) 
InChI=1S/C21H21N7O2/c1-2-3-12-28-20(18(13-22-28)21(29)30)23-15-10-8-14(9-11-15)16-6-4-5-7-17(16)19-24-26-27-25-19/h4-11,13,23H,2-3,12H2,1H3,(H,29,30)(H,24,25,26,27)

>  <Ligand InChI Key>  (1) 
NBSBZSIBRSNSCK-UHFFFAOYSA-N

>  <BindingDB MonomerID>  (1) 
50351798

>  <BindingDB Ligand Name>  (1) 
CHEMBL1824184

>  <Target Name>  (1) 
Type-1 angiotensin II receptor

>  <Target Source Organism According to Curator or DataSource>  (1) 
Homo sapiens

>  <Ki (nM)>  (1) 


>  <IC50 (nM)>  (1) 
 2.6

>  <Kd (nM)>  (1) 


>  <EC50 (nM)>  (1) 


>  <kon (M-1-s-1)>  (1) 


>  <koff (s-1)>  (1) 


>  <pH>  (1) 


>  <Temp C>  (1) 


>  <Curation/DataSource>  (1) 
ChEMBL

>  <Article DOI>  (1) 
10.1016/j.ejmech.2011.05.056

>  <BindingDB Entry DOI>  (1) 
10.7270/Q2R78FKW

>  <PMID>  (1) 
21683484

>  <PubChem AID>  (1) 


>  <Patent Number>  (1) 


>  <Authors>  (1) 
Deprez-Poulain, R; Cousaert, N; Toto, P; Willand, N; Deprez, B

>  <Institution>  (1) 
University of Lille

>  <Link to Ligand in BindingDB>  (1) 
http://www.bindingdb.org/bind/chemsearch/marvin/MolStructure.jsp?monomerid=50351798

>  <Link to Ligand-Target Pair in BindingDB>  (1) 
http://www.bindingdb.org/jsp/dbsearch/PrimarySearch_ki.jsp?energyterm=kJ/mole&tag=r21&monomerid=50351798&enzyme=Type-1+angiotensin+II+receptor&column=ki&startPg=0&Increment=50&submit=Search

>  <Ligand HET ID in PDB>  (1) 


>  <PDB ID(s) for Ligand-Target Complex>  (1) 


>  <PubChem CID of Ligand>  (1) 
54578725

>  <PubChem SID of Ligand>  (1) 
136358484

>  <ChEBI ID of Ligand>  (1) 


>  <ChEMBL ID of Ligand>  (1) 
CHEMBL1824184

>  <DrugBank ID of Ligand>  (1) 


>  <IUPHAR_GRAC ID of Ligand>  (1) 


>  <KEGG ID of Ligand>  (1) 


>  <ZINC ID of Ligand>  (1) 
ZINC72183364

>  <Number of Protein Chains in Target (bigger than 1 implies a multichain complex)>  (1) 
1

>  <BindingDB Target Chain Sequence>  (1) 
MILNSSTEDGIKRIQDDCPKAGRHNYIFVMIPTLYSIIFVVGIFGNSLVVIVIYFYMKLKTVASVFLLNLALADLCFLLTLPLWAVYTAMEYRWPFGNYLCKIASASVSFNLYASVFLLTCLSIDRYLAIVHPMKSRLRRTMLVAKVTCIIIWLLAGLASLPAIIHRNVFFIENTNITVCAFHYESQNSTLPIGLGLTKNILGFLFPFLIILTSYTLIWKALKKAYEIQKNKPRNDDIFKIIMAIVLFFFFSWIPHQIFTFLDVLIQLGIIRDCRIADIVDTAMPITICIAYFNNCLNPLFYGFLGKKFKRYFLQLLKYIPPKAKSHSNLSTKMSTLSYRPSDNVSSSTKKPAPCFEVE

>  <PDB ID(s) of Target Chain>  (1) 
6DO1,6OS0,6OS1,6OS2

>  <UniProt (SwissProt) Recommended Name of Target Chain>  (1) 
Type-1 angiotensin II receptor

>  <UniProt (SwissProt) Entry Name of Target Chain>  (1) 
AGTR1_HUMAN

>  <UniProt (SwissProt) Primary ID of Target Chain>  (1) 
P30556

>  <UniProt (SwissProt) Secondary ID(s) of Target Chain>  (1) 
Q13725 Q8TBK4

>  <UniProt (SwissProt) Alternative ID(s) of Target Chain>  (1) 


>  <UniProt (TrEMBL) Submitted Name of Target Chain>  (1) 


>  <UniProt (TrEMBL) Entry Name of Target Chain>  (1) 


>  <UniProt (TrEMBL) Primary ID of Target Chain>  (1) 


>  <UniProt (TrEMBL) Secondary ID(s) of Target Chain>  (1) 


>  <UniProt (TrEMBL) Alternative ID(s) of Target Chain>  (1) 


$$$$
