
     RDKit          2D

 31 34  0  0  0  0  0  0  0  0999 V2000
    0.3042   -1.3167    0.0000 N   0  0  0  0  0  0  0  0  0  0  0  0
   -0.1083   -0.0542    0.0000 N   0  0  0  0  0  0  0  0  0  0  0  0
    0.9750   -0.8417    0.0000 N   0  0  0  0  0  0  0  0  0  0  0  0
    3.8667   -2.5542    0.0000 C   0  0  0  0  0  0  0  0  0  0  0  0
   -0.3583   -0.8417    0.0000 C   0  0  0  0  0  0  0  0  0  0  0  0
    3.4417   -1.2917    0.0000 N   0  0  0  0  0  0  0  0  0  0  0  0
    3.1917   -2.0792    0.0000 N   0  0  0  0  0  0  0  0  0  0  0  0
    4.2667   -1.2792    0.0000 N   0  0  0  0  0  0  0  0  0  0  0  0
    0.7167   -0.0542    0.0000 C   0  0  0  0  0  0  0  0  0  0  0  0
    4.5292   -2.0667    0.0000 N   0  0  0  0  0  0  0  0  0  0  0  0
    3.8750   -3.3792    0.0000 C   0  0  0  0  0  0  0  0  0  0  0  0
    3.1667   -3.7917    0.0000 C   0  0  0  0  0  0  0  0  0  0  0  0
    0.3042   -2.1417    0.0000 C   0  0  0  0  0  0  0  0  0  0  0  0
    1.0167   -3.3792    0.0000 N   0  0  0  0  0  0  0  0  0  0  0  0
    2.4417   -3.3792    0.0000 C   0  0  0  0  0  0  0  0  0  0  0  0
    1.7292   -3.7917    0.0000 C   0  0  0  0  0  0  0  0  0  0  0  0
    1.0167   -2.5542    0.0000 C   0  0  0  0  0  0  0  0  0  0  0  0
    2.4417   -2.5542    0.0000 C   0  0  0  0  0  0  0  0  0  0  0  0
    1.7292   -2.1417    0.0000 C   0  0  0  0  0  0  0  0  0  0  0  0
   -1.1458   -1.0917    0.0000 C   0  0  0  0  0  0  0  0  0  0  0  0
    1.2042    0.6083    0.0000 C   0  0  0  0  0  0  0  0  0  0  0  0
    4.5875   -3.7917    0.0000 C   0  0  0  0  0  0  0  0  0  0  0  0
    3.1625   -4.6167    0.0000 C   0  0  0  0  0  0  0  0  0  0  0  0
   -1.7583   -0.5417    0.0000 C   0  0  0  0  0  0  0  0  0  0  0  0
    2.0250    0.5333    0.0000 C   0  0  0  0  0  0  0  0  0  0  0  0
   -2.5458   -0.8042    0.0000 C   0  0  0  0  0  0  0  0  0  0  0  0
    2.5042    1.1958    0.0000 C   0  0  0  0  0  0  0  0  0  0  0  0
    3.8792   -5.0292    0.0000 C   0  0  0  0  0  0  0  0  0  0  0  0
    4.5917   -4.6167    0.0000 C   0  0  0  0  0  0  0  0  0  0  0  0
   -3.1625   -0.2542    0.0000 C   0  0  0  0  0  0  0  0  0  0  0  0
    3.3250    1.1083    0.0000 C   0  0  0  0  0  0  0  0  0  0  0  0
  2  5  2  0
  3  1  1  0
  4 11  1  0
  5  1  1  0
  6  7  1  0
  7  4  1  0
  8 10  1  0
  9  3  2  0
 10  4  2  0
 11 12  1  0
 12 15  1  0
 13  1  1  0
 14 17  2  0
 15 18  1  0
 16 14  1  0
 17 13  1  0
 18 19  2  0
 19 17  1  0
 20  5  1  0
 21  9  1  0
 22 11  2  0
 23 12  2  0
 24 20  1  0
 25 21  1  0
 26 24  1  0
 27 25  1  0
 28 23  1  0
 29 28  2  0
 30 26  1  0
 31 27  1  0
  9  2  1  0
 16 15  2  0
 22 29  1  0
  8  6  2  0
M  END
>  <From>  (1) 
www.bindingDB.org

>  <BindingDB Reactant_set_id>  (1) 
50267955

>  <Ligand InChI>  (1) 
InChI=1S/C23H28N8/c1-3-5-11-21-25-22(12-6-4-2)31(28-21)16-18-14-13-17(15-24-18)19-9-7-8-10-20(19)23-26-29-30-27-23/h7-10,13-15H,3-6,11-12,16H2,1-2H3,(H,26,27,29,30)

>  <Ligand InChI Key>  (1) 
XPRWTMFBVBRNJE-UHFFFAOYSA-N

>  <BindingDB MonomerID>  (1) 
50145967

>  <BindingDB Ligand Name>  (1) 
2-(3,5-Dibutyl-[1,2,4]triazol-1-ylmethyl)-5-[2-(1H-tetrazol-5-yl)-phenyl]-pyridine::2-(3,5-Dibutyl-[1,2,4]triazol-1-ylmethyl)-5-[2-(2H-tetrazol-5-yl)-phenyl]-pyridine::CHEMBL315022

>  <Target Name>  (1) 
Type-1 angiotensin II receptor B

>  <Target Source Organism According to Curator or DataSource>  (1) 
Rattus

>  <Ki (nM)>  (1) 


>  <IC50 (nM)>  (1) 
 6.8

>  <Kd (nM)>  (1) 


>  <EC50 (nM)>  (1) 


>  <kon (M-1-s-1)>  (1) 


>  <koff (s-1)>  (1) 


>  <pH>  (1) 


>  <Temp C>  (1) 


>  <Curation/DataSource>  (1) 
ChEMBL

>  <Article DOI>  (1) 
10.1021/jm031100t

>  <BindingDB Entry DOI>  (1) 
10.7270/Q25X28DX

>  <PMID>  (1) 
15115399

>  <PubChem AID>  (1) 


>  <Patent Number>  (1) 


>  <Authors>  (1) 
Cappelli, A; Pericot Mohr Gl, G; Gallelli, A; Rizzo, M; Anzini, M; Vomero, S; Mennuni, L; Ferrari, F; Makovec, F; Menziani, MC; De Benedetti, PG; Giorgi, G

>  <Institution>  (1) 
Universit&#224; di Siena

>  <Link to Ligand in BindingDB>  (1) 
http://www.bindingdb.org/bind/chemsearch/marvin/MolStructure.jsp?monomerid=50145967

>  <Link to Ligand-Target Pair in BindingDB>  (1) 
http://www.bindingdb.org/jsp/dbsearch/PrimarySearch_ki.jsp?energyterm=kJ/mole&tag=r21&monomerid=50145967&enzyme=Type-1+angiotensin+II+receptor+B&column=ki&startPg=0&Increment=50&submit=Search

>  <Ligand HET ID in PDB>  (1) 


>  <PDB ID(s) for Ligand-Target Complex>  (1) 


>  <PubChem CID of Ligand>  (1) 
9888159

>  <PubChem SID of Ligand>  (1) 
104034653

>  <ChEBI ID of Ligand>  (1) 


>  <ChEMBL ID of Ligand>  (1) 
CHEMBL315022

>  <DrugBank ID of Ligand>  (1) 


>  <IUPHAR_GRAC ID of Ligand>  (1) 


>  <KEGG ID of Ligand>  (1) 


>  <ZINC ID of Ligand>  (1) 
ZINC01534665

>  <Number of Protein Chains in Target (bigger than 1 implies a multichain complex)>  (1) 
1

>  <BindingDB Target Chain Sequence>  (1) 
MTLNSSTEDGIKRIQDDCPKAGRHNYIFVMIPTLYSIIFVVGIFGNSLVVIVIYFYMKLKTVASVFLLNLALADLCFLLTLPLWAVYTAMEYRWPFGNHLCKIASASVSFNLYASVFLLTCLSIDRYLAIVHPMKSRLRRTMLVAKVTCIIIWLMAGLASLPAVIYRNVYFIENTNITVCAFHYESQNSTLPIGLGLTKNILGFVFPFLIILTSYTLIWKALKKAYKIQKNTPRNDDIFRIIMAIVLFFFFSWVPHQIFTFLDVLIQLGIIRDCEIADIVDTAMPITICIAYFNNCLNPLFYGFLGKKFKKYFLQLLKYIPPTAKSHAGLSTKMSTLSYRPSDNMSSSAKKSASFFEVE

>  <PDB ID(s) of Target Chain>  (1) 


>  <UniProt (SwissProt) Recommended Name of Target Chain>  (1) 
Type-1 angiotensin II receptor B

>  <UniProt (SwissProt) Entry Name of Target Chain>  (1) 
AGTRB_RAT

>  <UniProt (SwissProt) Primary ID of Target Chain>  (1) 
P29089

>  <UniProt (SwissProt) Secondary ID(s) of Target Chain>  (1) 


>  <UniProt (SwissProt) Alternative ID(s) of Target Chain>  (1) 


>  <UniProt (TrEMBL) Submitted Name of Target Chain>  (1) 


>  <UniProt (TrEMBL) Entry Name of Target Chain>  (1) 


>  <UniProt (TrEMBL) Primary ID of Target Chain>  (1) 


>  <UniProt (TrEMBL) Secondary ID(s) of Target Chain>  (1) 


>  <UniProt (TrEMBL) Alternative ID(s) of Target Chain>  (1) 


$$$$
