
     RDKit          2D

 36 39  0  0  0  0  0  0  0  0999 V2000
    0.9708   -4.0500    0.0000 N   0  0  0  0  0  0  0  0  0  0  0  0
   -0.1875   -4.0500    0.0000 N   0  0  0  0  0  0  0  0  0  0  0  0
    0.3917   -4.4667    0.0000 C   0  0  0  0  0  0  0  0  0  0  0  0
    0.0375   -3.3667    0.0000 C   0  0  0  0  0  0  0  0  0  0  0  0
    0.7500   -3.3667    0.0000 C   0  0  0  0  0  0  0  0  0  0  0  0
   -0.3792   -2.7875    0.0000 C   0  0  0  0  0  0  0  0  0  0  0  0
   -1.5708   -2.3250    0.0000 N   0  0  0  0  0  0  0  0  0  0  0  0
   -1.0917   -2.8583    0.0000 C   0  0  0  0  0  0  0  0  0  0  0  0
   -2.2292   -3.2750    0.0000 N   0  0  0  0  0  0  0  0  0  0  0  0
   -0.6333   -5.5500    0.0000 N   0  0  0  0  0  0  0  0  0  0  0  0
   -2.2208   -2.6208    0.0000 C   0  0  0  0  0  0  0  0  0  0  0  0
   -1.0375   -4.9708    0.0000 C   0  0  0  0  0  0  0  0  0  0  0  0
   -1.4500   -3.4833    0.0000 C   0  0  0  0  0  0  0  0  0  0  0  0
   -0.8625   -4.2708    0.0000 C   0  0  0  0  0  0  0  0  0  0  0  0
   -1.0542   -6.1292    0.0000 C   0  0  0  0  0  0  0  0  0  0  0  0
   -1.7333   -5.8917    0.0000 S   0  0  0  0  0  0  0  0  0  0  0  0
   -1.7208   -5.1792    0.0000 C   0  0  0  0  0  0  0  0  0  0  0  0
    1.2833   -0.7500    0.0000 C   0  0  0  0  0  0  0  0  0  0  0  0
    0.3500   -4.9417    0.0000 O   0  0  0  0  0  0  0  0  0  0  0  0
   -1.4208   -1.6250    0.0000 C   0  0  0  0  0  0  0  0  0  0  0  0
    1.1667   -2.7875    0.0000 O   0  0  0  0  0  0  0  0  0  0  0  0
    0.6000   -0.9292    0.0000 C   0  0  0  0  0  0  0  0  0  0  0  0
    1.4917   -0.0667    0.0000 O   0  0  0  0  0  0  0  0  0  0  0  0
    1.6500   -4.2708    0.0000 C   0  0  0  0  0  0  0  0  0  0  0  0
    0.0958   -0.4375    0.0000 C   0  0  0  0  0  0  0  0  0  0  0  0
    0.4667   -1.6708    0.0000 C   0  0  0  0  0  0  0  0  0  0  0  0
   -0.7500   -1.4208    0.0000 C   0  0  0  0  0  0  0  0  0  0  0  0
    1.7833   -1.2708    0.0000 O   0  0  0  0  0  0  0  0  0  0  0  0
   -0.6042   -0.7208    0.0000 C   0  0  0  0  0  0  0  0  0  0  0  0
   -0.2167   -1.8958    0.0000 C   0  0  0  0  0  0  0  0  0  0  0  0
   -2.8375   -2.2667    0.0000 C   0  0  0  0  0  0  0  0  0  0  0  0
   -0.8458   -6.8125    0.0000 C   0  0  0  0  0  0  0  0  0  0  0  0
    2.4750   -1.1083    0.0000 C   0  0  0  0  0  0  0  0  0  0  0  0
   -3.4542   -2.6208    0.0000 C   0  0  0  0  0  0  0  0  0  0  0  0
   -4.0792   -2.2667    0.0000 C   0  0  0  0  0  0  0  0  0  0  0  0
   -4.6917   -2.6208    0.0000 C   0  0  0  0  0  0  0  0  0  0  0  0
  2  3  1  0
  3  1  1  0
  4  5  1  0
  5  1  1  0
  6  4  2  0
  7  8  1  0
  8  6  1  0
  9 13  1  0
 10 12  1  0
 11  7  1  0
 12 14  1  0
 13  8  2  0
 14  2  1  0
 15 10  2  0
 16 17  1  0
 17 12  2  0
 18 22  1  0
 19  3  2  0
 20  7  1  0
 21  5  2  0
 22 26  2  0
 23 18  2  0
 24  1  1  0
 25 29  2  0
 26 30  1  0
 27 20  1  0
 28 18  1  0
 29 27  1  0
 30 27  2  0
 31 11  1  0
 32 15  1  0
 33 28  1  0
 34 31  1  0
 35 34  1  0
 36 35  1  0
  4  2  1  0
  9 11  2  0
 15 16  1  0
 22 25  1  0
M  END
>  <From>  (1) 
www.bindingDB.org

>  <BindingDB Reactant_set_id>  (1) 
51186059

>  <Ligand InChI>  (1) 
InChI=1S/C26H29N5O4S/c1-5-6-7-23-27-13-21(30(23)14-18-8-10-19(11-9-18)25(33)35-4)12-22-24(32)29(3)26(34)31(22)15-20-16-36-17(2)28-20/h8-13,16H,5-7,14-15H2,1-4H3/b22-12-

>  <Ligand InChI Key>  (1) 
FCRXELIIJYKGSF-UUYOSTAYSA-N

>  <BindingDB MonomerID>  (1) 
50487677

>  <BindingDB Ligand Name>  (1) 
CHEMBL123091

>  <Target Name>  (1) 
Type-1 angiotensin II receptor

>  <Target Source Organism According to Curator or DataSource>  (1) 
Homo sapiens

>  <Ki (nM)>  (1) 


>  <IC50 (nM)>  (1) 
 17

>  <Kd (nM)>  (1) 


>  <EC50 (nM)>  (1) 


>  <kon (M-1-s-1)>  (1) 


>  <koff (s-1)>  (1) 


>  <pH>  (1) 


>  <Temp C>  (1) 


>  <Curation/DataSource>  (1) 
ChEMBL

>  <Article DOI>  (1) 
10.1007/s00044-009-9205-9

>  <BindingDB Entry DOI>  (1) 
10.7270/Q2CC13K2

>  <PMID>  (1) 


>  <PubChem AID>  (1) 


>  <Patent Number>  (1) 


>  <Authors>  (1) 
n/a

>  <Institution>  (1) 
n/a

>  <Link to Ligand in BindingDB>  (1) 
http://www.bindingdb.org/bind/chemsearch/marvin/MolStructure.jsp?monomerid=50487677

>  <Link to Ligand-Target Pair in BindingDB>  (1) 
http://www.bindingdb.org/jsp/dbsearch/PrimarySearch_ki.jsp?energyterm=kJ/mole&tag=r21&monomerid=50487677&enzyme=Type-1+angiotensin+II+receptor&column=ki&startPg=0&Increment=50&submit=Search

>  <Ligand HET ID in PDB>  (1) 


>  <PDB ID(s) for Ligand-Target Complex>  (1) 


>  <PubChem CID of Ligand>  (1) 
10323969

>  <PubChem SID of Ligand>  (1) 
433954942

>  <ChEBI ID of Ligand>  (1) 


>  <ChEMBL ID of Ligand>  (1) 


>  <DrugBank ID of Ligand>  (1) 


>  <IUPHAR_GRAC ID of Ligand>  (1) 


>  <KEGG ID of Ligand>  (1) 


>  <ZINC ID of Ligand>  (1) 


>  <Number of Protein Chains in Target (bigger than 1 implies a multichain complex)>  (1) 
1

>  <BindingDB Target Chain Sequence>  (1) 
MILNSSTEDGIKRIQDDCPKAGRHNYIFVMIPTLYSIIFVVGIFGNSLVVIVIYFYMKLKTVASVFLLNLALADLCFLLTLPLWAVYTAMEYRWPFGNYLCKIASASVSFNLYASVFLLTCLSIDRYLAIVHPMKSRLRRTMLVAKVTCIIIWLLAGLASLPAIIHRNVFFIENTNITVCAFHYESQNSTLPIGLGLTKNILGFLFPFLIILTSYTLIWKALKKAYEIQKNKPRNDDIFKIIMAIVLFFFFSWIPHQIFTFLDVLIQLGIIRDCRIADIVDTAMPITICIAYFNNCLNPLFYGFLGKKFKRYFLQLLKYIPPKAKSHSNLSTKMSTLSYRPSDNVSSSTKKPAPCFEVE

>  <PDB ID(s) of Target Chain>  (1) 
6DO1,6OS0,6OS1,6OS2

>  <UniProt (SwissProt) Recommended Name of Target Chain>  (1) 
Type-1 angiotensin II receptor

>  <UniProt (SwissProt) Entry Name of Target Chain>  (1) 
AGTR1_HUMAN

>  <UniProt (SwissProt) Primary ID of Target Chain>  (1) 
P30556

>  <UniProt (SwissProt) Secondary ID(s) of Target Chain>  (1) 
Q13725 Q8TBK4

>  <UniProt (SwissProt) Alternative ID(s) of Target Chain>  (1) 


>  <UniProt (TrEMBL) Submitted Name of Target Chain>  (1) 


>  <UniProt (TrEMBL) Entry Name of Target Chain>  (1) 


>  <UniProt (TrEMBL) Primary ID of Target Chain>  (1) 


>  <UniProt (TrEMBL) Secondary ID(s) of Target Chain>  (1) 


>  <UniProt (TrEMBL) Alternative ID(s) of Target Chain>  (1) 


$$$$
