
     RDKit          2D

 35 38  0  0  0  0  0  0  0  0999 V2000
    3.5917   -2.7417    0.0000 N   0  0  0  0  0  0  0  0  0  0  0  0
    4.3750   -2.4917    0.0000 C   0  0  0  0  0  0  0  0  0  0  0  0
    3.5917   -1.4042    0.0000 N   0  0  0  0  0  0  0  0  0  0  0  0
    3.1125   -2.0792    0.0000 C   0  0  0  0  0  0  0  0  0  0  0  0
    4.3750   -1.6667    0.0000 C   0  0  0  0  0  0  0  0  0  0  0  0
    7.4625   -5.3792    0.0000 C   0  0  0  0  0  0  0  0  0  0  0  0
    6.7500   -4.9667    0.0000 C   0  0  0  0  0  0  0  0  0  0  0  0
    5.0875   -2.9042    0.0000 N   0  0  0  0  0  0  0  0  0  0  0  0
    6.0292   -5.3792    0.0000 N   0  0  0  0  0  0  0  0  0  0  0  0
    5.0875   -1.2417    0.0000 C   0  0  0  0  0  0  0  0  0  0  0  0
    6.7667   -4.1417    0.0000 C   0  0  0  0  0  0  0  0  0  0  0  0
    3.3375   -3.5292    0.0000 C   0  0  0  0  0  0  0  0  0  0  0  0
    7.4625   -6.2042    0.0000 C   0  0  0  0  0  0  0  0  0  0  0  0
    8.1750   -4.9667    0.0000 C   0  0  0  0  0  0  0  0  0  0  0  0
    5.3167   -4.9667    0.0000 C   0  0  0  0  0  0  0  0  0  0  0  0
    5.8042   -2.4917    0.0000 C   0  0  0  0  0  0  0  0  0  0  0  0
    5.8042   -1.6542    0.0000 C   0  0  0  0  0  0  0  0  0  0  0  0
    6.0625   -3.7125    0.0000 O   0  0  0  0  0  0  0  0  0  0  0  0
    8.1750   -6.6042    0.0000 C   0  0  0  0  0  0  0  0  0  0  0  0
    4.6000   -5.3792    0.0000 C   0  0  0  0  0  0  0  0  0  0  0  0
    5.3125   -4.1417    0.0000 C   0  0  0  0  0  0  0  0  0  0  0  0
    8.8875   -5.3667    0.0000 C   0  0  0  0  0  0  0  0  0  0  0  0
    3.8875   -4.1417    0.0000 C   0  0  0  0  0  0  0  0  0  0  0  0
    7.4875   -3.7417    0.0000 O   0  0  0  0  0  0  0  0  0  0  0  0
    6.7500   -6.6167    0.0000 F   0  0  0  0  0  0  0  0  0  0  0  0
    2.2875   -2.0667    0.0000 C   0  0  0  0  0  0  0  0  0  0  0  0
    8.8875   -6.1917    0.0000 C   0  0  0  0  0  0  0  0  0  0  0  0
    3.8875   -4.9667    0.0000 C   0  0  0  0  0  0  0  0  0  0  0  0
    4.6000   -3.7292    0.0000 C   0  0  0  0  0  0  0  0  0  0  0  0
    9.6000   -4.9542    0.0000 F   0  0  0  0  0  0  0  0  0  0  0  0
    6.0375   -6.2042    0.0000 C   0  0  0  0  0  0  0  0  0  0  0  0
    5.0875   -0.4167    0.0000 C   0  0  0  0  0  0  0  0  0  0  0  0
    6.5250   -2.9042    0.0000 C   0  0  0  0  0  0  0  0  0  0  0  0
    1.8750   -1.3542    0.0000 C   0  0  0  0  0  0  0  0  0  0  0  0
    5.3167   -6.6167    0.0000 C   0  0  0  0  0  0  0  0  0  0  0  0
  2  1  1  0
  3  4  2  0
  4  1  1  0
  5  2  2  0
  6  7  1  0
  7  9  1  0
  8  2  1  0
  9 15  1  0
 10  5  1  0
 11  7  1  0
 12  1  1  0
 13  6  2  0
 14  6  1  0
 15 21  2  0
 16  8  2  0
 17 16  1  0
 18 11  2  0
 19 13  1  0
 20 28  2  0
 21 29  1  0
 22 14  2  0
 23 12  1  0
 24 11  1  0
 25 13  1  0
 26  4  1  0
 27 22  1  0
 28 23  1  0
 29 23  2  0
 30 22  1  0
 31  9  1  0
 32 10  1  0
 33 16  1  0
 34 26  1  0
 35 31  1  0
  5  3  1  0
 20 15  1  0
 17 10  2  0
 19 27  2  0
M  END
>  <From>  (1) 
www.bindingDB.org

>  <BindingDB Reactant_set_id>  (1) 
50062220

>  <Ligand InChI>  (1) 
InChI=1S/C27H28F2N4O2/c1-5-23-31-24-16(3)13-17(4)30-26(24)33(23)15-18-7-10-20(11-8-18)32(6-2)25(27(34)35)21-14-19(28)9-12-22(21)29/h7-14,25H,5-6,15H2,1-4H3,(H,34,35)

>  <Ligand InChI Key>  (1) 
DILMHWCAAVRXSR-UHFFFAOYSA-N

>  <BindingDB MonomerID>  (1) 
50043468

>  <BindingDB Ligand Name>  (1) 
(2,5-Difluoro-phenyl)-{ethyl-[4-(2-ethyl-5,7-dimethyl-imidazo[4,5-b]pyridin-3-ylmethyl)-phenyl]-amino}-acetic acid::CHEMBL335276

>  <Target Name>  (1) 
Type-1 angiotensin II receptor

>  <Target Source Organism According to Curator or DataSource>  (1) 
Oryctolagus cuniculus

>  <Ki (nM)>  (1) 


>  <IC50 (nM)>  (1) 
 88

>  <Kd (nM)>  (1) 


>  <EC50 (nM)>  (1) 


>  <kon (M-1-s-1)>  (1) 


>  <koff (s-1)>  (1) 


>  <pH>  (1) 


>  <Temp C>  (1) 


>  <Curation/DataSource>  (1) 
ChEMBL

>  <Article DOI>  (1) 
10.1021/jm00078a014

>  <BindingDB Entry DOI>  (1) 
10.7270/Q22V2F6P

>  <PMID>  (1) 
8277506

>  <PubChem AID>  (1) 


>  <Patent Number>  (1) 


>  <Authors>  (1) 
Dhanoa, DS; Bagley, SW; Chang, RS; Lotti, VJ; Chen, TB; Kivlighn, SD; Zingaro, GJ; Siegl, PK; Patchett, AA; Greenlee, WJ

>  <Institution>  (1) 
Merck Research Laboratories

>  <Link to Ligand in BindingDB>  (1) 
http://www.bindingdb.org/bind/chemsearch/marvin/MolStructure.jsp?monomerid=50043468

>  <Link to Ligand-Target Pair in BindingDB>  (1) 
http://www.bindingdb.org/jsp/dbsearch/PrimarySearch_ki.jsp?energyterm=kJ/mole&tag=r21&monomerid=50043468&enzyme=Type-1+angiotensin+II+receptor&column=ki&startPg=0&Increment=50&submit=Search

>  <Ligand HET ID in PDB>  (1) 


>  <PDB ID(s) for Ligand-Target Complex>  (1) 


>  <PubChem CID of Ligand>  (1) 
10050755

>  <PubChem SID of Ligand>  (1) 
103974896

>  <ChEBI ID of Ligand>  (1) 


>  <ChEMBL ID of Ligand>  (1) 
CHEMBL335276

>  <DrugBank ID of Ligand>  (1) 


>  <IUPHAR_GRAC ID of Ligand>  (1) 


>  <KEGG ID of Ligand>  (1) 


>  <ZINC ID of Ligand>  (1) 
ZINC13732558

>  <Number of Protein Chains in Target (bigger than 1 implies a multichain complex)>  (1) 
1

>  <BindingDB Target Chain Sequence>  (1) 
MMLNSSTEDGIKRIQDDCPKAGRHNYIFVMIPTLYSIIFVVGIFGNSLAVIVIYFYMKLKTVASVFLLNLALADLCFLLTLPLWAVYTAMEYRWPFGNYLCKIASASVSFNLYASVFLLTCLSIDRYLAIVHPMKSRLRRTMLVAKVTCIIIWLLAGLASLPAIIHRNVFFIENTNITVCAFHYESQNSTLPIGLGLTKNILGFLFPFLIILTSYTLIWKALKKAYEIQKNKPRNDDIFKIIMAIVLFFFFSWVPHQIFTFLDVLIQLGVIHDCRIADIVDTAMPITICIAYFNNCLNPLFYGFLGKKFKKYFLQLLKYIPPKAKSHSNLSTKMSTLSYRPSDNVSSSSKKPVPCFEVE

>  <PDB ID(s) of Target Chain>  (1) 
6DO1,6OS0,6OS1,6OS2

>  <UniProt (SwissProt) Recommended Name of Target Chain>  (1) 
Type-1 angiotensin II receptor

>  <UniProt (SwissProt) Entry Name of Target Chain>  (1) 
AGTR1_RABIT

>  <UniProt (SwissProt) Primary ID of Target Chain>  (1) 
P34976

>  <UniProt (SwissProt) Secondary ID(s) of Target Chain>  (1) 


>  <UniProt (SwissProt) Alternative ID(s) of Target Chain>  (1) 


>  <UniProt (TrEMBL) Submitted Name of Target Chain>  (1) 


>  <UniProt (TrEMBL) Entry Name of Target Chain>  (1) 


>  <UniProt (TrEMBL) Primary ID of Target Chain>  (1) 


>  <UniProt (TrEMBL) Secondary ID(s) of Target Chain>  (1) 


>  <UniProt (TrEMBL) Alternative ID(s) of Target Chain>  (1) 


$$$$
