
     RDKit          2D

 43 46  0  0  0  0  0  0  0  0999 V2000
    4.0042   -3.4292    0.0000 S   0  0  0  0  0  0  0  0  0  0  0  0
    0.4417   -2.1917    0.0000 N   0  0  0  0  0  0  0  0  0  0  0  0
    1.1542   -1.7875    0.0000 C   0  0  0  0  0  0  0  0  0  0  0  0
    1.1542   -0.9625    0.0000 C   0  0  0  0  0  0  0  0  0  0  0  0
   -0.2625   -1.7875    0.0000 C   0  0  0  0  0  0  0  0  0  0  0  0
   -0.2625   -0.9625    0.0000 N   0  0  0  0  0  0  0  0  0  0  0  0
    4.8292   -3.4292    0.0000 N   0  0  0  0  0  0  0  0  0  0  0  0
    0.4417   -0.5417    0.0000 C   0  0  0  0  0  0  0  0  0  0  0  0
    4.0125   -4.2542    0.0000 C   0  0  0  0  0  0  0  0  0  0  0  0
    1.8667   -0.5625    0.0000 C   0  0  0  0  0  0  0  0  0  0  0  0
    3.3000   -4.6667    0.0000 C   0  0  0  0  0  0  0  0  0  0  0  0
    5.1417   -2.6625    0.0000 C   0  0  0  0  0  0  0  0  0  0  0  0
    3.2917   -3.0167    0.0000 O   0  0  0  0  0  0  0  0  0  0  0  0
    4.0042   -2.6042    0.0000 O   0  0  0  0  0  0  0  0  0  0  0  0
    0.4417   -3.0167    0.0000 C   0  0  0  0  0  0  0  0  0  0  0  0
    1.8792    0.2625    0.0000 C   0  0  0  0  0  0  0  0  0  0  0  0
    1.8667   -2.2000    0.0000 O   0  0  0  0  0  0  0  0  0  0  0  0
    2.5875   -4.2542    0.0000 C   0  0  0  0  0  0  0  0  0  0  0  0
    8.6042   -3.6417    0.0000 C   0  0  0  0  0  0  0  0  0  0  0  0
    0.4500    0.2833    0.0000 C   0  0  0  0  0  0  0  0  0  0  0  0
    1.1667    0.6833    0.0000 C   0  0  0  0  0  0  0  0  0  0  0  0
    4.6417   -2.0125    0.0000 O   0  0  0  0  0  0  0  0  0  0  0  0
    8.9167   -2.8792    0.0000 O   0  0  0  0  0  0  0  0  0  0  0  0
    2.5792   -3.4292    0.0000 C   0  0  0  0  0  0  0  0  0  0  0  0
    1.8667   -4.6667    0.0000 C   0  0  0  0  0  0  0  0  0  0  0  0
    1.1625   -3.4292    0.0000 C   0  0  0  0  0  0  0  0  0  0  0  0
    2.6000    0.6708    0.0000 C   0  0  0  0  0  0  0  0  0  0  0  0
   -0.9833   -2.2000    0.0000 C   0  0  0  0  0  0  0  0  0  0  0  0
    9.1042   -4.2917    0.0000 O   0  0  0  0  0  0  0  0  0  0  0  0
    1.1542   -4.2542    0.0000 C   0  0  0  0  0  0  0  0  0  0  0  0
    1.8667   -3.0167    0.0000 C   0  0  0  0  0  0  0  0  0  0  0  0
    4.7250   -4.6625    0.0000 C   0  0  0  0  0  0  0  0  0  0  0  0
    3.3000   -5.4917    0.0000 C   0  0  0  0  0  0  0  0  0  0  0  0
    5.9625   -2.5542    0.0000 C   0  0  0  0  0  0  0  0  0  0  0  0
    7.7875   -3.7500    0.0000 C   0  0  0  0  0  0  0  0  0  0  0  0
    3.3125    0.2458    0.0000 C   0  0  0  0  0  0  0  0  0  0  0  0
    2.6125    1.4958    0.0000 C   0  0  0  0  0  0  0  0  0  0  0  0
   -1.6958   -1.7875    0.0000 C   0  0  0  0  0  0  0  0  0  0  0  0
    6.4667   -3.2042    0.0000 C   0  0  0  0  0  0  0  0  0  0  0  0
    7.2792   -3.1000    0.0000 C   0  0  0  0  0  0  0  0  0  0  0  0
    4.7292   -5.4917    0.0000 C   0  0  0  0  0  0  0  0  0  0  0  0
    4.0167   -5.9042    0.0000 C   0  0  0  0  0  0  0  0  0  0  0  0
   -2.4083   -2.2000    0.0000 C   0  0  0  0  0  0  0  0  0  0  0  0
  2 15  1  0
  3  2  1  0
  4  3  1  0
  5  2  1  0
  6  5  2  0
  7  1  1  0
  8  6  1  0
  9  1  1  0
 10  4  2  0
 11  9  2  0
 12  7  1  0
 13  1  2  0
 14  1  2  0
 15 26  1  0
 16 10  1  0
 17  3  2  0
 18 11  1  0
 19 35  1  0
 20  8  2  0
 21 20  1  0
 22 12  2  0
 23 19  2  0
 24 18  2  0
 25 18  1  0
 26 30  1  0
 27 16  1  0
 28  5  1  0
 29 19  1  0
 30 25  2  0
 31 24  1  0
 32  9  1  0
 33 11  1  0
 34 12  1  0
 35 40  1  0
 36 27  1  0
 37 27  1  0
 38 28  1  0
 39 34  1  0
 40 39  1  0
 41 32  2  0
 42 41  1  0
 43 38  1  0
 33 42  2  0
 31 26  2  0
  4  8  1  0
 16 21  2  0
M  END
>  <From>  (1) 
www.bindingDB.org

>  <BindingDB Reactant_set_id>  (1) 
50467659

>  <Ligand InChI>  (1) 
InChI=1S/C33H37N3O6S/c1-4-9-30-34-28-19-18-25(22(2)3)20-27(28)33(40)36(30)21-23-14-16-24(17-15-23)26-10-5-6-11-29(26)43(41,42)35-31(37)12-7-8-13-32(38)39/h5-6,10-11,14-20,22H,4,7-9,12-13,21H2,1-3H3,(H,35,37)(H,38,39)

>  <Ligand InChI Key>  (1) 
ABSJDIWFRVISBD-UHFFFAOYSA-N

>  <BindingDB MonomerID>  (1) 
50282446

>  <BindingDB Ligand Name>  (1) 
6-[4'-(6-Isopropyl-4-oxo-2-propyl-4H-quinazolin-3-ylmethyl)-biphenyl-2-sulfonylamino]-6-oxo-hexanoic acid::CHEMBL166428

>  <Target Name>  (1) 
Type-1 angiotensin II receptor

>  <Target Source Organism According to Curator or DataSource>  (1) 
Oryctolagus cuniculus

>  <Ki (nM)>  (1) 


>  <IC50 (nM)>  (1) 
 25

>  <Kd (nM)>  (1) 


>  <EC50 (nM)>  (1) 


>  <kon (M-1-s-1)>  (1) 


>  <koff (s-1)>  (1) 


>  <pH>  (1) 


>  <Temp C>  (1) 


>  <Curation/DataSource>  (1) 
ChEMBL

>  <Article DOI>  (1) 
10.1016/S0960-894X(01)81125-2

>  <BindingDB Entry DOI>  (1) 
10.7270/Q2J1033H

>  <PMID>  (1) 


>  <PubChem AID>  (1) 


>  <Patent Number>  (1) 


>  <Authors>  (1) 
Chakravarty, PK; Strelitz, RA; Chen, TB; Chang, RS; Lotti, VJ; Zingaro, GJ; Schorn, TW; Kivlighn, SD; Siegel, PK; Patchett, AA; Greenlee, WJ

>  <Institution>  (1) 
TBA

>  <Link to Ligand in BindingDB>  (1) 
http://www.bindingdb.org/bind/chemsearch/marvin/MolStructure.jsp?monomerid=50282446

>  <Link to Ligand-Target Pair in BindingDB>  (1) 
http://www.bindingdb.org/jsp/dbsearch/PrimarySearch_ki.jsp?energyterm=kJ/mole&tag=r21&monomerid=50282446&enzyme=Type-1+angiotensin+II+receptor&column=ki&startPg=0&Increment=50&submit=Search

>  <Ligand HET ID in PDB>  (1) 


>  <PDB ID(s) for Ligand-Target Complex>  (1) 


>  <PubChem CID of Ligand>  (1) 
44379185

>  <PubChem SID of Ligand>  (1) 
104124120

>  <ChEBI ID of Ligand>  (1) 


>  <ChEMBL ID of Ligand>  (1) 
CHEMBL166428

>  <DrugBank ID of Ligand>  (1) 


>  <IUPHAR_GRAC ID of Ligand>  (1) 


>  <KEGG ID of Ligand>  (1) 


>  <ZINC ID of Ligand>  (1) 
ZINC27890378

>  <Number of Protein Chains in Target (bigger than 1 implies a multichain complex)>  (1) 
1

>  <BindingDB Target Chain Sequence>  (1) 
MMLNSSTEDGIKRIQDDCPKAGRHNYIFVMIPTLYSIIFVVGIFGNSLAVIVIYFYMKLKTVASVFLLNLALADLCFLLTLPLWAVYTAMEYRWPFGNYLCKIASASVSFNLYASVFLLTCLSIDRYLAIVHPMKSRLRRTMLVAKVTCIIIWLLAGLASLPAIIHRNVFFIENTNITVCAFHYESQNSTLPIGLGLTKNILGFLFPFLIILTSYTLIWKALKKAYEIQKNKPRNDDIFKIIMAIVLFFFFSWVPHQIFTFLDVLIQLGVIHDCRIADIVDTAMPITICIAYFNNCLNPLFYGFLGKKFKKYFLQLLKYIPPKAKSHSNLSTKMSTLSYRPSDNVSSSSKKPVPCFEVE

>  <PDB ID(s) of Target Chain>  (1) 
6DO1,6OS0,6OS1,6OS2

>  <UniProt (SwissProt) Recommended Name of Target Chain>  (1) 
Type-1 angiotensin II receptor

>  <UniProt (SwissProt) Entry Name of Target Chain>  (1) 
AGTR1_RABIT

>  <UniProt (SwissProt) Primary ID of Target Chain>  (1) 
P34976

>  <UniProt (SwissProt) Secondary ID(s) of Target Chain>  (1) 


>  <UniProt (SwissProt) Alternative ID(s) of Target Chain>  (1) 


>  <UniProt (TrEMBL) Submitted Name of Target Chain>  (1) 


>  <UniProt (TrEMBL) Entry Name of Target Chain>  (1) 


>  <UniProt (TrEMBL) Primary ID of Target Chain>  (1) 


>  <UniProt (TrEMBL) Secondary ID(s) of Target Chain>  (1) 


>  <UniProt (TrEMBL) Alternative ID(s) of Target Chain>  (1) 


$$$$
