
     RDKit          2D

 49 56  0  0  1  0  0  0  0  0999 V2000
    6.4500    0.3583    0.0000 N   0  0  0  0  0  0  0  0  0  0  0  0
    5.7292   -0.0542    0.0000 C   0  0  0  0  0  0  0  0  0  0  0  0
    5.0167    0.3625    0.0000 C   0  0  0  0  0  0  0  0  0  0  0  0
    2.7917   -0.8792    0.0000 N   0  0  0  0  0  0  0  0  0  0  0  0
    6.4500    1.1875    0.0000 C   0  0  0  0  0  0  0  0  0  0  0  0
    5.7292    1.6000    0.0000 N   0  0  0  0  0  0  0  0  0  0  0  0
    2.1250    0.2833    0.0000 C   0  0  0  0  0  0  0  0  0  0  0  0
    8.5792   -3.3417    0.0000 C   0  0  0  0  0  0  0  0  0  0  0  0
    1.9792   -1.0500    0.0000 O   0  0  0  0  0  0  0  0  0  0  0  0
    9.4750   -2.3500    0.0000 N   0  0  0  0  0  0  0  0  0  0  0  0
    2.8792   -0.0625    0.0000 C   0  0  0  0  0  0  0  0  0  0  0  0
    8.6667   -2.5250    0.0000 N   0  0  0  0  0  0  0  0  0  0  0  0
    9.8875   -3.0625    0.0000 N   0  0  0  0  0  0  0  0  0  0  0  0
    1.5750   -0.3375    0.0000 C   0  0  0  0  0  0  0  0  0  0  0  0
    5.0167    1.1875    0.0000 C   0  0  0  0  0  0  0  0  0  0  0  0
    3.5917    0.3583    0.0000 C   0  0  0  0  0  0  0  0  0  0  0  0
    4.3042   -0.0542    0.0000 C   0  0  0  0  0  0  0  0  0  0  0  0
    9.3375   -3.6750    0.0000 N   0  0  0  0  0  0  0  0  0  0  0  0
    7.8667   -3.7625    0.0000 C   0  0  0  0  0  0  0  0  0  0  0  0
    7.1542   -3.3500    0.0000 C   0  0  0  0  0  0  0  0  0  0  0  0
    1.7042    0.9958    0.0000 C   0  0  0  0  0  0  0  0  0  0  0  0
    7.1625   -0.0542    0.0000 C   0  0  0  0  0  0  0  0  0  0  0  0
    3.4042   -1.4292    0.0000 C   0  0  0  0  0  0  0  0  0  0  0  0
    5.7292   -0.8792    0.0000 O   0  0  0  0  0  0  0  0  0  0  0  0
    7.1542   -2.5250    0.0000 C   0  0  0  0  0  0  0  0  0  0  0  0
    3.5917    1.1833    0.0000 C   0  0  0  0  0  0  0  0  0  0  0  0
    0.8167    0.0000    0.0000 C   0  0  0  0  0  0  0  0  0  0  0  0
    4.3042    1.6000    0.0000 C   0  0  0  0  0  0  0  0  0  0  0  0
    0.9000    0.8250    0.0000 C   0  0  0  0  0  0  0  0  0  0  0  0
    2.0417    1.7500    0.0000 O   0  0  0  0  0  0  0  0  0  0  0  0
    6.4417   -2.1125    0.0000 C   0  0  0  0  0  0  0  0  0  0  0  0
    7.8750   -2.1125    0.0000 C   0  0  0  0  0  0  0  0  0  0  0  0
    7.1625   -0.8792    0.0000 C   0  0  0  0  0  0  0  0  0  0  0  0
    7.1667    1.5958    0.0000 C   0  0  0  0  0  0  0  0  0  0  0  0
    3.2292   -2.2375    0.0000 C   0  0  0  0  0  0  0  0  0  0  0  0
    6.4417   -1.2875    0.0000 C   0  0  0  0  0  0  0  0  0  0  0  0
    7.8750   -1.2875    0.0000 C   0  0  0  0  0  0  0  0  0  0  0  0
    7.8667   -4.5875    0.0000 C   0  0  0  0  0  0  0  0  0  0  0  0
    6.4417   -3.7625    0.0000 C   0  0  0  0  0  0  0  0  0  0  0  0
    2.4417   -2.4875    0.0000 C   0  0  0  0  0  0  0  0  0  0  0  0
    3.8417   -2.7875    0.0000 C   0  0  0  0  0  0  0  0  0  0  0  0
    7.8792    1.1833    0.0000 C   0  0  0  0  0  0  0  0  0  0  0  0
    8.5917    1.5958    0.0000 C   0  0  0  0  0  0  0  0  0  0  0  0
    6.4417   -4.5875    0.0000 C   0  0  0  0  0  0  0  0  0  0  0  0
    7.1542   -5.0000    0.0000 C   0  0  0  0  0  0  0  0  0  0  0  0
    9.3042    1.1750    0.0000 C   0  0  0  0  0  0  0  0  0  0  0  0
    3.6750   -3.5875    0.0000 C   0  0  0  0  0  0  0  0  0  0  0  0
    2.2750   -3.2917    0.0000 C   0  0  0  0  0  0  0  0  0  0  0  0
    2.8875   -3.8500    0.0000 C   0  0  0  0  0  0  0  0  0  0  0  0
  2  1  1  0
  3  2  1  0
 11  4  1  0
  5  1  1  0
  6  5  2  0
  7 11  1  0
  8 19  1  0
  9  4  1  0
 10 12  1  0
 11 16  1  6
 12  8  1  0
 13 18  1  0
  7 14  1  0
 15  6  1  0
 16 17  1  0
 17  3  2  0
 18  8  2  0
 19 20  1  0
 20 25  1  0
  7 21  1  1
 22  1  1  0
 23  4  1  0
 24  2  2  0
 25 32  2  0
 26 28  1  0
 14 27  1  1
 28 15  2  0
 29 21  1  0
 30 21  2  0
 31 36  2  0
 32 37  1  0
 33 22  1  0
 34  5  1  0
 35 23  1  0
 36 33  1  0
 37 33  2  0
 38 19  2  0
 39 20  2  0
 40 35  2  0
 41 35  1  0
 42 34  1  0
 43 42  1  0
 44 39  1  0
 45 44  2  0
 46 43  1  0
 47 41  2  0
 48 40  1  0
 49 47  1  0
 15  3  1  0
 31 25  1  0
 26 16  2  0
 14  9  1  0
 29 27  1  0
 38 45  1  0
 13 10  2  0
 48 49  2  0
M  END
>  <From>  (1) 
www.bindingDB.org

>  <BindingDB Reactant_set_id>  (1) 
50468482

>  <Ligand InChI>  (1) 
InChI=1S/C39H37N7O3/c1-2-3-13-35-40-32-19-18-28(37-36-33(47)20-21-34(36)49-46(37)24-25-9-5-4-6-10-25)22-31(32)39(48)45(35)23-26-14-16-27(17-15-26)29-11-7-8-12-30(29)38-41-43-44-42-38/h4-12,14-19,22,34,36-37H,2-3,13,20-21,23-24H2,1H3,(H,41,42,43,44)/t34-,36+,37-/m0/s1

>  <Ligand InChI Key>  (1) 
MYSNBLPDCHNSRW-GZSDNXPSSA-N

>  <BindingDB MonomerID>  (1) 
50282883

>  <BindingDB Ligand Name>  (1) 
6-((3R,3aS,6aS)-2-Benzyl-4-oxo-hexahydro-cyclopenta[d]isoxazol-3-yl)-2-butyl-3-[2'-(1H-tetrazol-5-yl)-biphenyl-4-ylmethyl]-3H-quinazolin-4-one::CHEMBL298509

>  <Target Name>  (1) 
Type-1 angiotensin II receptor

>  <Target Source Organism According to Curator or DataSource>  (1) 
Bos taurus

>  <Ki (nM)>  (1) 


>  <IC50 (nM)>  (1) 
 79

>  <Kd (nM)>  (1) 


>  <EC50 (nM)>  (1) 


>  <kon (M-1-s-1)>  (1) 


>  <koff (s-1)>  (1) 


>  <pH>  (1) 


>  <Temp C>  (1) 


>  <Curation/DataSource>  (1) 
ChEMBL

>  <Article DOI>  (1) 
10.1016/S0960-894X(01)80377-2

>  <BindingDB Entry DOI>  (1) 
10.7270/Q21V5DXH

>  <PMID>  (1) 


>  <PubChem AID>  (1) 


>  <Patent Number>  (1) 


>  <Authors>  (1) 
Levin, JI; Venkatesan, AM; Chan, PS; Bailey, TK; Vice, G; Coupet, J

>  <Institution>  (1) 
TBA

>  <Link to Ligand in BindingDB>  (1) 
http://www.bindingdb.org/bind/chemsearch/marvin/MolStructure.jsp?monomerid=50282883

>  <Link to Ligand-Target Pair in BindingDB>  (1) 
http://www.bindingdb.org/jsp/dbsearch/PrimarySearch_ki.jsp?energyterm=kJ/mole&tag=r21&monomerid=50282883&enzyme=Type-1+angiotensin+II+receptor&column=ki&startPg=0&Increment=50&submit=Search

>  <Ligand HET ID in PDB>  (1) 


>  <PDB ID(s) for Ligand-Target Complex>  (1) 


>  <PubChem CID of Ligand>  (1) 
44297217

>  <PubChem SID of Ligand>  (1) 
104124557

>  <ChEBI ID of Ligand>  (1) 


>  <ChEMBL ID of Ligand>  (1) 
CHEMBL298509

>  <DrugBank ID of Ligand>  (1) 


>  <IUPHAR_GRAC ID of Ligand>  (1) 


>  <KEGG ID of Ligand>  (1) 


>  <ZINC ID of Ligand>  (1) 
ZINC29481526

>  <Number of Protein Chains in Target (bigger than 1 implies a multichain complex)>  (1) 
1

>  <BindingDB Target Chain Sequence>  (1) 
MILNSSTEDGIKRIQDDCPKAGRHNYIFIMIPTLYSIIFVVGIFGNSLVVIVIYFYMKLKTVASVFLLNLALADLCFLLTLPLWAVYTAMEYRWPFGNYLCKIASASVSFNLYASVFLLTCLSIDRYLAIVHPMKSRLRRTMLVAKVTCIIIWLLAGLASLPTIIHRNVFFIENTNITVCAFHYESQNSTLPVGLGLTKNILGFLFPFLIILTSYTLIWKTLKKAYEIQKNKPRKDDIFKIILAIVLFFFFSWVPHQIFTFMDVLIQLGLIRDCKIEDIVDTAMPITICLAYFNNCLNPLFYGFLGKKFKKYFLQLLKYIPPKAKSHSNLSTKMSTLSYRPSENGNSSTKKPAPCIEVE

>  <PDB ID(s) of Target Chain>  (1) 


>  <UniProt (SwissProt) Recommended Name of Target Chain>  (1) 
Type-1 angiotensin II receptor

>  <UniProt (SwissProt) Entry Name of Target Chain>  (1) 
AGTR1_BOVIN

>  <UniProt (SwissProt) Primary ID of Target Chain>  (1) 
P25104

>  <UniProt (SwissProt) Secondary ID(s) of Target Chain>  (1) 


>  <UniProt (SwissProt) Alternative ID(s) of Target Chain>  (1) 


>  <UniProt (TrEMBL) Submitted Name of Target Chain>  (1) 


>  <UniProt (TrEMBL) Entry Name of Target Chain>  (1) 


>  <UniProt (TrEMBL) Primary ID of Target Chain>  (1) 


>  <UniProt (TrEMBL) Secondary ID(s) of Target Chain>  (1) 


>  <UniProt (TrEMBL) Alternative ID(s) of Target Chain>  (1) 


$$$$
