
     RDKit          2D

 38 43  0  0  0  0  0  0  0  0999 V2000
    7.1504   -1.9285    0.0000 S   0  0  0  0  0  0  0  0  0  0  0  0
    6.5493   -1.3566    0.0000 N   0  0  0  0  0  0  0  0  0  0  0  0
    5.8230   -1.7574    0.0000 N   0  0  0  0  0  0  0  0  0  0  0  0
    5.9775   -2.5713    0.0000 C   0  0  0  0  0  0  0  0  0  0  0  0
    6.7914   -2.6715    0.0000 N   0  0  0  0  0  0  0  0  0  0  0  0
    1.9953   -1.2272    0.0000 N   0  0  0  0  0  0  0  0  0  0  0  0
    2.6590   -0.7388    0.0000 C   0  0  0  0  0  0  0  0  0  0  0  0
    1.5778    0.0459    0.0000 N   0  0  0  0  0  0  0  0  0  0  0  0
    1.3191   -0.7430    0.0000 C   0  0  0  0  0  0  0  0  0  0  0  0
    2.4043    0.0459    0.0000 C   0  0  0  0  0  0  0  0  0  0  0  0
    3.4604   -0.9058    0.0000 N   0  0  0  0  0  0  0  0  0  0  0  0
    5.5642   -3.2851    0.0000 C   0  0  0  0  0  0  0  0  0  0  0  0
    4.8504   -3.7067    0.0000 C   0  0  0  0  0  0  0  0  0  0  0  0
    2.9470    0.6512    0.0000 C   0  0  0  0  0  0  0  0  0  0  0  0
    7.7139   -1.3191    0.0000 O   0  0  0  0  0  0  0  0  0  0  0  0
    1.9953   -2.0537    0.0000 C   0  0  0  0  0  0  0  0  0  0  0  0
    6.6537   -0.5427    0.0000 C   0  0  0  0  0  0  0  0  0  0  0  0
    4.1366   -3.2934    0.0000 C   0  0  0  0  0  0  0  0  0  0  0  0
    4.0114   -0.3005    0.0000 C   0  0  0  0  0  0  0  0  0  0  0  0
    3.7568    0.4842    0.0000 C   0  0  0  0  0  0  0  0  0  0  0  0
    4.1366   -2.4586    0.0000 C   0  0  0  0  0  0  0  0  0  0  0  0
    3.4229   -3.7067    0.0000 C   0  0  0  0  0  0  0  0  0  0  0  0
    2.7091   -2.4669    0.0000 C   0  0  0  0  0  0  0  0  0  0  0  0
    0.5385   -0.9935    0.0000 C   0  0  0  0  0  0  0  0  0  0  0  0
    2.7091   -3.2934    0.0000 C   0  0  0  0  0  0  0  0  0  0  0  0
    3.4229   -2.0537    0.0000 C   0  0  0  0  0  0  0  0  0  0  0  0
    6.2780   -3.6984    0.0000 C   0  0  0  0  0  0  0  0  0  0  0  0
    4.8504   -4.5332    0.0000 C   0  0  0  0  0  0  0  0  0  0  0  0
    2.6966    1.4401    0.0000 C   0  0  0  0  0  0  0  0  0  0  0  0
    7.4176   -0.2171    0.0000 C   0  0  0  0  0  0  0  0  0  0  0  0
    5.9983   -0.0418    0.0000 C   0  0  0  0  0  0  0  0  0  0  0  0
    4.8212   -0.4675    0.0000 C   0  0  0  0  0  0  0  0  0  0  0  0
   -0.0835   -0.4425    0.0000 C   0  0  0  0  0  0  0  0  0  0  0  0
    6.2863   -4.5248    0.0000 C   0  0  0  0  0  0  0  0  0  0  0  0
    5.5642   -4.9464    0.0000 C   0  0  0  0  0  0  0  0  0  0  0  0
    6.1027    0.7722    0.0000 C   0  0  0  0  0  0  0  0  0  0  0  0
    7.5260    0.5969    0.0000 C   0  0  0  0  0  0  0  0  0  0  0  0
    6.8666    1.0978    0.0000 C   0  0  0  0  0  0  0  0  0  0  0  0
  2  1  1  0
  3  2  1  0
  4  5  2  0
  5  1  1  0
  6 16  1  0
  7  6  1  0
  8  9  2  0
  9  6  1  0
 10  7  2  0
 11  7  1  0
 12  4  1  0
 13 12  1  0
 14 10  1  0
 15  1  2  0
 16 23  1  0
 17  2  1  0
 18 13  1  0
 19 11  2  0
 20 19  1  0
 21 18  2  0
 22 18  1  0
 23 25  1  0
 24  9  1  0
 25 22  2  0
 26 21  1  0
 27 12  2  0
 28 13  2  0
 29 14  1  0
 30 17  2  0
 31 17  1  0
 32 19  1  0
 33 24  1  0
 34 27  1  0
 35 34  2  0
 36 31  2  0
 37 30  1  0
 38 36  1  0
  4  3  1  0
 38 37  2  0
 35 28  1  0
 23 26  2  0
  8 10  1  0
 14 20  2  0
M  END
>  <From>  (1) 
www.bindingDB.org

>  <BindingDB Reactant_set_id>  (1) 
50002594

>  <Ligand InChI>  (1) 
InChI=1S/C30H28N6OS/c1-4-27-32-28-20(2)18-21(3)31-30(28)35(27)19-22-14-16-23(17-15-22)25-12-8-9-13-26(25)29-33-36(38(37)34-29)24-10-6-5-7-11-24/h5-18H,4,19H2,1-3H3,(H,33,34)

>  <Ligand InChI Key>  (1) 
JQHQKNKVFWZKAX-UHFFFAOYSA-N

>  <BindingDB MonomerID>  (1) 
50282385

>  <BindingDB Ligand Name>  (1) 
2-Ethyl-5,7-dimethyl-3-[2'-(1-oxo-2-phenyl-2,5-dihydro-1H-1lambda*4*-[1,2,3,5]thiatriazol-4-yl)-biphenyl-4-ylmethyl]-3H-imidazo[4,5-b]pyridine::CHEMBL424289

>  <Target Name>  (1) 
Type-1 angiotensin II receptor

>  <Target Source Organism According to Curator or DataSource>  (1) 
Oryctolagus cuniculus

>  <Ki (nM)>  (1) 


>  <IC50 (nM)>  (1) 
 6

>  <Kd (nM)>  (1) 


>  <EC50 (nM)>  (1) 


>  <kon (M-1-s-1)>  (1) 


>  <koff (s-1)>  (1) 


>  <pH>  (1) 


>  <Temp C>  (1) 


>  <Curation/DataSource>  (1) 
ChEMBL

>  <Article DOI>  (1) 
10.1016/S0960-894X(01)81119-7

>  <BindingDB Entry DOI>  (1) 
10.7270/Q2X92B6P

>  <PMID>  (1) 


>  <PubChem AID>  (1) 


>  <Patent Number>  (1) 


>  <Authors>  (1) 
Kim, D; Mantlo, NB; Chang, RS; Kivlighn, SD; Greenlee, WJ

>  <Institution>  (1) 
TBA

>  <Link to Ligand in BindingDB>  (1) 
http://www.bindingdb.org/bind/chemsearch/marvin/MolStructure.jsp?monomerid=50282385

>  <Link to Ligand-Target Pair in BindingDB>  (1) 
http://www.bindingdb.org/jsp/dbsearch/PrimarySearch_ki.jsp?energyterm=kJ/mole&tag=r21&monomerid=50282385&enzyme=Type-1+angiotensin+II+receptor&column=ki&startPg=0&Increment=50&submit=Search

>  <Ligand HET ID in PDB>  (1) 


>  <PDB ID(s) for Ligand-Target Complex>  (1) 


>  <PubChem CID of Ligand>  (1) 
15236334

>  <PubChem SID of Ligand>  (1) 
104124059

>  <ChEBI ID of Ligand>  (1) 


>  <ChEMBL ID of Ligand>  (1) 
CHEMBL424289

>  <DrugBank ID of Ligand>  (1) 


>  <IUPHAR_GRAC ID of Ligand>  (1) 


>  <KEGG ID of Ligand>  (1) 


>  <ZINC ID of Ligand>  (1) 
ZINC27518237

>  <Number of Protein Chains in Target (bigger than 1 implies a multichain complex)>  (1) 
1

>  <BindingDB Target Chain Sequence>  (1) 
MMLNSSTEDGIKRIQDDCPKAGRHNYIFVMIPTLYSIIFVVGIFGNSLAVIVIYFYMKLKTVASVFLLNLALADLCFLLTLPLWAVYTAMEYRWPFGNYLCKIASASVSFNLYASVFLLTCLSIDRYLAIVHPMKSRLRRTMLVAKVTCIIIWLLAGLASLPAIIHRNVFFIENTNITVCAFHYESQNSTLPIGLGLTKNILGFLFPFLIILTSYTLIWKALKKAYEIQKNKPRNDDIFKIIMAIVLFFFFSWVPHQIFTFLDVLIQLGVIHDCRIADIVDTAMPITICIAYFNNCLNPLFYGFLGKKFKKYFLQLLKYIPPKAKSHSNLSTKMSTLSYRPSDNVSSSSKKPVPCFEVE

>  <PDB ID(s) of Target Chain>  (1) 
6DO1,6OS0,6OS1,6OS2

>  <UniProt (SwissProt) Recommended Name of Target Chain>  (1) 
Type-1 angiotensin II receptor

>  <UniProt (SwissProt) Entry Name of Target Chain>  (1) 
AGTR1_RABIT

>  <UniProt (SwissProt) Primary ID of Target Chain>  (1) 
P34976

>  <UniProt (SwissProt) Secondary ID(s) of Target Chain>  (1) 


>  <UniProt (SwissProt) Alternative ID(s) of Target Chain>  (1) 


>  <UniProt (TrEMBL) Submitted Name of Target Chain>  (1) 


>  <UniProt (TrEMBL) Entry Name of Target Chain>  (1) 


>  <UniProt (TrEMBL) Primary ID of Target Chain>  (1) 


>  <UniProt (TrEMBL) Secondary ID(s) of Target Chain>  (1) 


>  <UniProt (TrEMBL) Alternative ID(s) of Target Chain>  (1) 


$$$$
