
     RDKit          2D

 34 37  0  0  0  0  0  0  0  0999 V2000
    6.6401   -5.1091    0.0000 C   0  0  0  0  0  0  0  0  0  0  0  0
    6.3822   -4.3228    0.0000 N   0  0  0  0  0  0  0  0  0  0  0  0
    5.9703   -5.5959    0.0000 C   0  0  0  0  0  0  0  0  0  0  0  0
    5.5584   -4.3228    0.0000 N   0  0  0  0  0  0  0  0  0  0  0  0
    9.5525   -7.2060    0.0000 C   0  0  0  0  0  0  0  0  0  0  0  0
    5.3088   -5.1091    0.0000 C   0  0  0  0  0  0  0  0  0  0  0  0
    9.1406   -5.9411    0.0000 N   0  0  0  0  0  0  0  0  0  0  0  0
    8.8867   -6.7192    0.0000 N   0  0  0  0  0  0  0  0  0  0  0  0
    9.9643   -5.9329    0.0000 N   0  0  0  0  0  0  0  0  0  0  0  0
    6.5944   -3.5239    0.0000 C   0  0  0  0  0  0  0  0  0  0  0  0
   10.2140   -6.7192    0.0000 N   0  0  0  0  0  0  0  0  0  0  0  0
    7.3890   -3.3076    0.0000 C   0  0  0  0  0  0  0  0  0  0  0  0
    7.4181   -5.3587    0.0000 C   0  0  0  0  0  0  0  0  0  0  0  0
    9.5607   -8.0255    0.0000 C   0  0  0  0  0  0  0  0  0  0  0  0
    8.8493   -8.4374    0.0000 C   0  0  0  0  0  0  0  0  0  0  0  0
    5.9953   -6.7941    0.0000 C   0  0  0  0  0  0  0  0  0  0  0  0
    8.1379   -8.0297    0.0000 C   0  0  0  0  0  0  0  0  0  0  0  0
    7.5762   -6.0202    0.0000 O   0  0  0  0  0  0  0  0  0  0  0  0
    8.1171   -3.0996    0.0000 F   0  0  0  0  0  0  0  0  0  0  0  0
    8.0921   -3.7985    0.0000 F   0  0  0  0  0  0  0  0  0  0  0  0
    7.7385   -2.5130    0.0000 F   0  0  0  0  0  0  0  0  0  0  0  0
    8.1379   -7.2018    0.0000 C   0  0  0  0  0  0  0  0  0  0  0  0
    7.4306   -8.4374    0.0000 C   0  0  0  0  0  0  0  0  0  0  0  0
    6.7067   -7.2018    0.0000 C   0  0  0  0  0  0  0  0  0  0  0  0
    8.0297   -4.8095    0.0000 O   0  0  0  0  0  0  0  0  0  0  0  0
    7.4264   -6.7899    0.0000 C   0  0  0  0  0  0  0  0  0  0  0  0
    6.7150   -8.0297    0.0000 C   0  0  0  0  0  0  0  0  0  0  0  0
    4.5225   -5.3670    0.0000 C   0  0  0  0  0  0  0  0  0  0  0  0
   10.2764   -8.4374    0.0000 C   0  0  0  0  0  0  0  0  0  0  0  0
    8.8493   -9.2654    0.0000 C   0  0  0  0  0  0  0  0  0  0  0  0
    3.9109   -4.8095    0.0000 C   0  0  0  0  0  0  0  0  0  0  0  0
   10.2764   -9.2654    0.0000 C   0  0  0  0  0  0  0  0  0  0  0  0
    9.5607   -9.6773    0.0000 C   0  0  0  0  0  0  0  0  0  0  0  0
    3.1245   -5.0674    0.0000 C   0  0  0  0  0  0  0  0  0  0  0  0
  2  1  1  0
  3  1  2  0
  4  2  1  0
  5 14  1  0
  6  3  1  0
  7  8  1  0
  8  5  1  0
  9 11  1  0
 10  2  1  0
 11  5  2  0
 12 10  1  0
 13  1  1  0
 14 15  1  0
 15 17  1  0
 16  3  1  0
 17 23  2  0
 18 13  2  0
 19 12  1  0
 20 12  1  0
 21 12  1  0
 22 26  2  0
 23 27  1  0
 24 16  1  0
 25 13  1  0
 26 24  1  0
 27 24  2  0
 28  6  1  0
 29 14  2  0
 30 15  2  0
 31 28  1  0
 32 33  2  0
 33 30  1  0
 34 31  1  0
  4  6  2  0
 17 22  1  0
 32 29  1  0
  9  7  2  0
M  END
>  <From>  (1) 
www.bindingDB.org

>  <BindingDB Reactant_set_id>  (1) 
50061782

>  <Ligand InChI>  (1) 
InChI=1S/C23H21F3N6O2/c1-2-5-19-18(20(22(33)34)32(29-19)13-23(24,25)26)12-14-8-10-15(11-9-14)16-6-3-4-7-17(16)21-27-30-31-28-21/h3-4,6-11H,2,5,12-13H2,1H3,(H,33,34)(H,27,28,30,31)

>  <Ligand InChI Key>  (1) 
MGIWEBMFBKGNIZ-UHFFFAOYSA-N

>  <BindingDB MonomerID>  (1) 
50042573

>  <BindingDB Ligand Name>  (1) 
5-Propyl-4-[2'-(1H-tetrazol-5-yl)-biphenyl-4-ylmethyl]-2-(2,2,2-trifluoro-ethyl)-2H-pyrazole-3-carboxylic acid::CHEMBL333978

>  <Target Name>  (1) 
Type-1 angiotensin II receptor

>  <Target Source Organism According to Curator or DataSource>  (1) 
Oryctolagus cuniculus

>  <Ki (nM)>  (1) 


>  <IC50 (nM)>  (1) 
 1.6

>  <Kd (nM)>  (1) 


>  <EC50 (nM)>  (1) 


>  <kon (M-1-s-1)>  (1) 


>  <koff (s-1)>  (1) 


>  <pH>  (1) 


>  <Temp C>  (1) 


>  <Curation/DataSource>  (1) 
ChEMBL

>  <Article DOI>  (1) 
10.1021/jm00075a014

>  <BindingDB Entry DOI>  (1) 
10.7270/Q25Q4V5H

>  <PMID>  (1) 
8246227

>  <PubChem AID>  (1) 


>  <Patent Number>  (1) 


>  <Authors>  (1) 
Ashton, WT; Hutchins, SM; Greenlee, WJ; Doss, GA; Chang, RS; Lotti, VJ; Faust, KA; Chen, TB; Zingaro, GJ; Kivlighn, SD

>  <Institution>  (1) 
Merck Research Laboratories

>  <Link to Ligand in BindingDB>  (1) 
http://www.bindingdb.org/bind/chemsearch/marvin/MolStructure.jsp?monomerid=50042573

>  <Link to Ligand-Target Pair in BindingDB>  (1) 
http://www.bindingdb.org/jsp/dbsearch/PrimarySearch_ki.jsp?energyterm=kJ/mole&tag=r21&monomerid=50042573&enzyme=Type-1+angiotensin+II+receptor&column=ki&startPg=0&Increment=50&submit=Search

>  <Ligand HET ID in PDB>  (1) 


>  <PDB ID(s) for Ligand-Target Complex>  (1) 


>  <PubChem CID of Ligand>  (1) 
14971719

>  <PubChem SID of Ligand>  (1) 
103974169

>  <ChEBI ID of Ligand>  (1) 


>  <ChEMBL ID of Ligand>  (1) 
CHEMBL333978

>  <DrugBank ID of Ligand>  (1) 


>  <IUPHAR_GRAC ID of Ligand>  (1) 


>  <KEGG ID of Ligand>  (1) 


>  <ZINC ID of Ligand>  (1) 
ZINC00834065

>  <Number of Protein Chains in Target (bigger than 1 implies a multichain complex)>  (1) 
1

>  <BindingDB Target Chain Sequence>  (1) 
MMLNSSTEDGIKRIQDDCPKAGRHNYIFVMIPTLYSIIFVVGIFGNSLAVIVIYFYMKLKTVASVFLLNLALADLCFLLTLPLWAVYTAMEYRWPFGNYLCKIASASVSFNLYASVFLLTCLSIDRYLAIVHPMKSRLRRTMLVAKVTCIIIWLLAGLASLPAIIHRNVFFIENTNITVCAFHYESQNSTLPIGLGLTKNILGFLFPFLIILTSYTLIWKALKKAYEIQKNKPRNDDIFKIIMAIVLFFFFSWVPHQIFTFLDVLIQLGVIHDCRIADIVDTAMPITICIAYFNNCLNPLFYGFLGKKFKKYFLQLLKYIPPKAKSHSNLSTKMSTLSYRPSDNVSSSSKKPVPCFEVE

>  <PDB ID(s) of Target Chain>  (1) 
6DO1,6OS0,6OS1,6OS2

>  <UniProt (SwissProt) Recommended Name of Target Chain>  (1) 
Type-1 angiotensin II receptor

>  <UniProt (SwissProt) Entry Name of Target Chain>  (1) 
AGTR1_RABIT

>  <UniProt (SwissProt) Primary ID of Target Chain>  (1) 
P34976

>  <UniProt (SwissProt) Secondary ID(s) of Target Chain>  (1) 


>  <UniProt (SwissProt) Alternative ID(s) of Target Chain>  (1) 


>  <UniProt (TrEMBL) Submitted Name of Target Chain>  (1) 


>  <UniProt (TrEMBL) Entry Name of Target Chain>  (1) 


>  <UniProt (TrEMBL) Primary ID of Target Chain>  (1) 


>  <UniProt (TrEMBL) Secondary ID(s) of Target Chain>  (1) 


>  <UniProt (TrEMBL) Alternative ID(s) of Target Chain>  (1) 


$$$$
