
     RDKit          2D

 35 38  0  0  0  0  0  0  0  0999 V2000
    2.7211   -1.2088    0.0000 N   0  0  0  0  0  0  0  0  0  0  0  0
    3.3856   -0.7276    0.0000 C   0  0  0  0  0  0  0  0  0  0  0  0
    2.3029    0.0630    0.0000 N   0  0  0  0  0  0  0  0  0  0  0  0
    3.1278    0.0630    0.0000 N   0  0  0  0  0  0  0  0  0  0  0  0
    2.0509   -0.7276    0.0000 C   0  0  0  0  0  0  0  0  0  0  0  0
    6.2786   -2.4462    0.0000 C   0  0  0  0  0  0  0  0  0  0  0  0
    5.8662   -1.1858    0.0000 N   0  0  0  0  0  0  0  0  0  0  0  0
    5.6084   -1.9650    0.0000 N   0  0  0  0  0  0  0  0  0  0  0  0
    6.6911   -1.1744    0.0000 N   0  0  0  0  0  0  0  0  0  0  0  0
    6.9489   -1.9650    0.0000 N   0  0  0  0  0  0  0  0  0  0  0  0
    6.2900   -3.2711    0.0000 C   0  0  0  0  0  0  0  0  0  0  0  0
    5.5740   -3.6835    0.0000 C   0  0  0  0  0  0  0  0  0  0  0  0
    2.7211   -2.0337    0.0000 C   0  0  0  0  0  0  0  0  0  0  0  0
    4.1648   -0.9796    0.0000 O   0  0  0  0  0  0  0  0  0  0  0  0
    4.8636   -3.2711    0.0000 C   0  0  0  0  0  0  0  0  0  0  0  0
    6.2213    1.9019    0.0000 C   0  0  0  0  0  0  0  0  0  0  0  0
    5.8833    2.6580    0.0000 O   0  0  0  0  0  0  0  0  0  0  0  0
    4.8694   -2.4462    0.0000 C   0  0  0  0  0  0  0  0  0  0  0  0
    4.1590   -3.6835    0.0000 C   0  0  0  0  0  0  0  0  0  0  0  0
    3.4372   -2.4462    0.0000 C   0  0  0  0  0  0  0  0  0  0  0  0
    3.6148    0.7332    0.0000 C   0  0  0  0  0  0  0  0  0  0  0  0
    1.2718   -0.9854    0.0000 C   0  0  0  0  0  0  0  0  0  0  0  0
    7.0348    1.8159    0.0000 O   0  0  0  0  0  0  0  0  0  0  0  0
    4.1476   -2.0337    0.0000 C   0  0  0  0  0  0  0  0  0  0  0  0
    3.4429   -3.2711    0.0000 C   0  0  0  0  0  0  0  0  0  0  0  0
    7.0004   -3.6835    0.0000 C   0  0  0  0  0  0  0  0  0  0  0  0
    5.5740   -4.5085    0.0000 C   0  0  0  0  0  0  0  0  0  0  0  0
    5.7401    1.2316    0.0000 C   0  0  0  0  0  0  0  0  0  0  0  0
    4.4340    0.6473    0.0000 C   0  0  0  0  0  0  0  0  0  0  0  0
    0.6531   -0.4354    0.0000 C   0  0  0  0  0  0  0  0  0  0  0  0
    4.9152    1.3175    0.0000 C   0  0  0  0  0  0  0  0  0  0  0  0
   -0.1317   -0.6932    0.0000 C   0  0  0  0  0  0  0  0  0  0  0  0
    6.2900   -4.9209    0.0000 C   0  0  0  0  0  0  0  0  0  0  0  0
    7.0004   -4.5085    0.0000 C   0  0  0  0  0  0  0  0  0  0  0  0
   -0.7504   -0.1433    0.0000 C   0  0  0  0  0  0  0  0  0  0  0  0
  2  1  1  0
  3  5  2  0
  4  2  1  0
  5  1  1  0
  6 11  1  0
  7  8  1  0
  8  6  1  0
  9 10  1  0
 10  6  2  0
 11 12  1  0
 12 15  1  0
 13  1  1  0
 14  2  2  0
 15 19  2  0
 16 28  1  0
 17 16  2  0
 18 24  2  0
 19 25  1  0
 20 13  1  0
 21  4  1  0
 22  5  1  0
 23 16  1  0
 24 20  1  0
 25 20  2  0
 26 11  2  0
 27 12  2  0
 28 31  1  0
 29 21  1  0
 30 22  1  0
 31 29  1  0
 32 30  1  0
 33 27  1  0
 34 33  2  0
 35 32  1  0
  4  3  1  0
 15 18  1  0
 34 26  1  0
  9  7  2  0
M  END
>  <From>  (1) 
www.bindingDB.org

>  <BindingDB Reactant_set_id>  (1) 
50071183

>  <Ligand InChI>  (1) 
InChI=1S/C25H29N7O3/c1-2-3-10-22-28-32(16-7-6-11-23(33)34)25(35)31(22)17-18-12-14-19(15-13-18)20-8-4-5-9-21(20)24-26-29-30-27-24/h4-5,8-9,12-15H,2-3,6-7,10-11,16-17H2,1H3,(H,33,34)(H,26,27,29,30)

>  <Ligand InChI Key>  (1) 
LJMUWWAXOBQDQV-UHFFFAOYSA-N

>  <BindingDB MonomerID>  (1) 
50044369

>  <BindingDB Ligand Name>  (1) 
5-{3-Butyl-5-oxo-4-[2'-(1H-tetrazol-5-yl)-biphenyl-4-ylmethyl]-4,5-dihydro-[1,2,4]triazol-1-yl}-pentanoic acid::CHEMBL302261

>  <Target Name>  (1) 
Type-1 angiotensin II receptor B

>  <Target Source Organism According to Curator or DataSource>  (1) 
Rattus

>  <Ki (nM)>  (1) 


>  <IC50 (nM)>  (1) 
 12

>  <Kd (nM)>  (1) 


>  <EC50 (nM)>  (1) 


>  <kon (M-1-s-1)>  (1) 


>  <koff (s-1)>  (1) 


>  <pH>  (1) 


>  <Temp C>  (1) 


>  <Curation/DataSource>  (1) 
ChEMBL

>  <Article DOI>  (1) 
10.1021/jm00067a015

>  <BindingDB Entry DOI>  (1) 
10.7270/Q2C53JXM

>  <PMID>  (1) 
8340920

>  <PubChem AID>  (1) 


>  <Patent Number>  (1) 


>  <Authors>  (1) 
Huang, HC; Reitz, DB; Chamberlain, TS; Olins, GM; Corpus, VM; McMahon, EG; Palomo, MA; Koepke, JP; Smits, GJ; McGraw, DE

>  <Institution>  (1) 
Searle R&D

>  <Link to Ligand in BindingDB>  (1) 
http://www.bindingdb.org/bind/chemsearch/marvin/MolStructure.jsp?monomerid=50044369

>  <Link to Ligand-Target Pair in BindingDB>  (1) 
http://www.bindingdb.org/jsp/dbsearch/PrimarySearch_ki.jsp?energyterm=kJ/mole&tag=r21&monomerid=50044369&enzyme=Type-1+angiotensin+II+receptor+B&column=ki&startPg=0&Increment=50&submit=Search

>  <Ligand HET ID in PDB>  (1) 


>  <PDB ID(s) for Ligand-Target Complex>  (1) 


>  <PubChem CID of Ligand>  (1) 
14951068

>  <PubChem SID of Ligand>  (1) 
103975624

>  <ChEBI ID of Ligand>  (1) 


>  <ChEMBL ID of Ligand>  (1) 
CHEMBL302261

>  <DrugBank ID of Ligand>  (1) 


>  <IUPHAR_GRAC ID of Ligand>  (1) 


>  <KEGG ID of Ligand>  (1) 


>  <ZINC ID of Ligand>  (1) 
ZINC01555168

>  <Number of Protein Chains in Target (bigger than 1 implies a multichain complex)>  (1) 
1

>  <BindingDB Target Chain Sequence>  (1) 
MTLNSSTEDGIKRIQDDCPKAGRHNYIFVMIPTLYSIIFVVGIFGNSLVVIVIYFYMKLKTVASVFLLNLALADLCFLLTLPLWAVYTAMEYRWPFGNHLCKIASASVSFNLYASVFLLTCLSIDRYLAIVHPMKSRLRRTMLVAKVTCIIIWLMAGLASLPAVIYRNVYFIENTNITVCAFHYESQNSTLPIGLGLTKNILGFVFPFLIILTSYTLIWKALKKAYKIQKNTPRNDDIFRIIMAIVLFFFFSWVPHQIFTFLDVLIQLGIIRDCEIADIVDTAMPITICIAYFNNCLNPLFYGFLGKKFKKYFLQLLKYIPPTAKSHAGLSTKMSTLSYRPSDNMSSSAKKSASFFEVE

>  <PDB ID(s) of Target Chain>  (1) 


>  <UniProt (SwissProt) Recommended Name of Target Chain>  (1) 
Type-1 angiotensin II receptor B

>  <UniProt (SwissProt) Entry Name of Target Chain>  (1) 
AGTRB_RAT

>  <UniProt (SwissProt) Primary ID of Target Chain>  (1) 
P29089

>  <UniProt (SwissProt) Secondary ID(s) of Target Chain>  (1) 


>  <UniProt (SwissProt) Alternative ID(s) of Target Chain>  (1) 


>  <UniProt (TrEMBL) Submitted Name of Target Chain>  (1) 


>  <UniProt (TrEMBL) Entry Name of Target Chain>  (1) 


>  <UniProt (TrEMBL) Primary ID of Target Chain>  (1) 


>  <UniProt (TrEMBL) Secondary ID(s) of Target Chain>  (1) 


>  <UniProt (TrEMBL) Alternative ID(s) of Target Chain>  (1) 


$$$$
