
     RDKit          2D

 32 35  0  0  0  0  0  0  0  0999 V2000
    4.6827   -1.9181    0.0000 C   0  0  0  0  0  0  0  0  0  0  0  0
    4.0072   -2.4060    0.0000 N   0  0  0  0  0  0  0  0  0  0  0  0
    4.4283   -1.1384    0.0000 C   0  0  0  0  0  0  0  0  0  0  0  0
    3.6027   -1.1384    0.0000 N   0  0  0  0  0  0  0  0  0  0  0  0
    3.3442   -1.9264    0.0000 C   0  0  0  0  0  0  0  0  0  0  0  0
    7.5724   -3.6444    0.0000 C   0  0  0  0  0  0  0  0  0  0  0  0
    7.1554   -2.3768    0.0000 N   0  0  0  0  0  0  0  0  0  0  0  0
    6.9052   -3.1649    0.0000 N   0  0  0  0  0  0  0  0  0  0  0  0
    7.9810   -2.3768    0.0000 N   0  0  0  0  0  0  0  0  0  0  0  0
    8.2354   -3.1566    0.0000 N   0  0  0  0  0  0  0  0  0  0  0  0
    5.4666   -2.1808    0.0000 C   0  0  0  0  0  0  0  0  0  0  0  0
    7.5807   -4.4700    0.0000 C   0  0  0  0  0  0  0  0  0  0  0  0
    6.8676   -4.8829    0.0000 C   0  0  0  0  0  0  0  0  0  0  0  0
    4.0072   -3.2316    0.0000 C   0  0  0  0  0  0  0  0  0  0  0  0
    6.1546   -4.4700    0.0000 C   0  0  0  0  0  0  0  0  0  0  0  0
    4.9079   -0.4671    0.0000 C   0  0  0  0  0  0  0  0  0  0  0  0
    5.3457   -2.7312    0.0000 O   0  0  0  0  0  0  0  0  0  0  0  0
    5.4333   -4.8829    0.0000 C   0  0  0  0  0  0  0  0  0  0  0  0
    6.1546   -3.6444    0.0000 C   0  0  0  0  0  0  0  0  0  0  0  0
    4.7202   -3.6444    0.0000 C   0  0  0  0  0  0  0  0  0  0  0  0
    6.0838   -1.6304    0.0000 O   0  0  0  0  0  0  0  0  0  0  0  0
    2.5561   -2.1766    0.0000 C   0  0  0  0  0  0  0  0  0  0  0  0
    4.7202   -4.4700    0.0000 C   0  0  0  0  0  0  0  0  0  0  0  0
    5.4333   -3.2316    0.0000 C   0  0  0  0  0  0  0  0  0  0  0  0
    8.2937   -4.8787    0.0000 C   0  0  0  0  0  0  0  0  0  0  0  0
    6.8676   -5.7085    0.0000 C   0  0  0  0  0  0  0  0  0  0  0  0
    5.7335   -0.5546    0.0000 C   0  0  0  0  0  0  0  0  0  0  0  0
    4.5784    0.2835    0.0000 C   0  0  0  0  0  0  0  0  0  0  0  0
    1.9432   -1.6262    0.0000 C   0  0  0  0  0  0  0  0  0  0  0  0
    8.2979   -5.7085    0.0000 C   0  0  0  0  0  0  0  0  0  0  0  0
    7.5849   -6.1213    0.0000 C   0  0  0  0  0  0  0  0  0  0  0  0
    1.1634   -1.8806    0.0000 C   0  0  0  0  0  0  0  0  0  0  0  0
  2  1  1  0
  3  1  2  0
  4  3  1  0
  5  2  1  0
  6 12  1  0
  7  8  1  0
  8  6  1  0
  9 10  1  0
 10  6  2  0
 11  1  1  0
 12 13  1  0
 13 15  1  0
 14  2  1  0
 15 19  2  0
 16  3  1  0
 17 11  2  0
 18 23  2  0
 19 24  1  0
 20 14  1  0
 21 11  1  0
 22  5  1  0
 23 20  1  0
 24 20  2  0
 25 12  2  0
 26 13  2  0
 27 16  1  0
 28 16  1  0
 29 22  1  0
 30 31  2  0
 31 26  1  0
 32 29  1  0
  4  5  2  0
 18 15  1  0
 30 25  1  0
  9  7  2  0
M  END
>  <From>  (1) 
www.bindingDB.org

>  <BindingDB Reactant_set_id>  (1) 
50079636

>  <Ligand InChI>  (1) 
InChI=1S/C24H26N6O2/c1-4-7-20-25-21(15(2)3)22(24(31)32)30(20)14-16-10-12-17(13-11-16)18-8-5-6-9-19(18)23-26-28-29-27-23/h5-6,8-13,15H,4,7,14H2,1-3H3,(H,31,32)(H,26,27,28,29)

>  <Ligand InChI Key>  (1) 
HSFLACXCXSAPBI-UHFFFAOYSA-N

>  <BindingDB MonomerID>  (1) 
50049130

>  <BindingDB Ligand Name>  (1) 
5-Isopropyl-2-propyl-3-[2'-(1H-tetrazol-5-yl)-biphenyl-4-ylmethyl]-3H-imidazole-4-carboxylic acid::5-Isopropyl-2-propyl-3-[2'-(2H-tetrazol-5-yl)-biphenyl-4-ylmethyl]-3H-imidazole-4-carboxylic acid::CHEMBL115206

>  <Target Name>  (1) 
Type-1 angiotensin II receptor

>  <Target Source Organism According to Curator or DataSource>  (1) 
Bos taurus

>  <Ki (nM)>  (1) 


>  <IC50 (nM)>  (1) 
 46

>  <Kd (nM)>  (1) 


>  <EC50 (nM)>  (1) 


>  <kon (M-1-s-1)>  (1) 


>  <koff (s-1)>  (1) 


>  <pH>  (1) 


>  <Temp C>  (1) 


>  <Curation/DataSource>  (1) 
ChEMBL

>  <Article DOI>  (1) 
10.1021/jm950450f

>  <BindingDB Entry DOI>  (1) 
10.7270/Q28S4P18

>  <PMID>  (1) 
8568823

>  <PubChem AID>  (1) 


>  <Patent Number>  (1) 


>  <Authors>  (1) 
Yanagisawa, H; Amemiya, Y; Kanazaki, T; Shimoji, Y; Fujimoto, K; Kitahara, Y; Sada, T; Mizuno, M; Ikeda, M; Miyamoto, S; Furukawa, Y; Koike, H

>  <Institution>  (1) 
Sankyo Company Ltd

>  <Link to Ligand in BindingDB>  (1) 
http://www.bindingdb.org/bind/chemsearch/marvin/MolStructure.jsp?monomerid=50049130

>  <Link to Ligand-Target Pair in BindingDB>  (1) 
http://www.bindingdb.org/jsp/dbsearch/PrimarySearch_ki.jsp?energyterm=kJ/mole&tag=r21&monomerid=50049130&enzyme=Type-1+angiotensin+II+receptor&column=ki&startPg=0&Increment=50&submit=Search

>  <Ligand HET ID in PDB>  (1) 


>  <PDB ID(s) for Ligand-Target Complex>  (1) 


>  <PubChem CID of Ligand>  (1) 
9910561

>  <PubChem SID of Ligand>  (1) 
103979492

>  <ChEBI ID of Ligand>  (1) 


>  <ChEMBL ID of Ligand>  (1) 
CHEMBL115206

>  <DrugBank ID of Ligand>  (1) 


>  <IUPHAR_GRAC ID of Ligand>  (1) 


>  <KEGG ID of Ligand>  (1) 


>  <ZINC ID of Ligand>  (1) 
ZINC13745655

>  <Number of Protein Chains in Target (bigger than 1 implies a multichain complex)>  (1) 
1

>  <BindingDB Target Chain Sequence>  (1) 
MILNSSTEDGIKRIQDDCPKAGRHNYIFIMIPTLYSIIFVVGIFGNSLVVIVIYFYMKLKTVASVFLLNLALADLCFLLTLPLWAVYTAMEYRWPFGNYLCKIASASVSFNLYASVFLLTCLSIDRYLAIVHPMKSRLRRTMLVAKVTCIIIWLLAGLASLPTIIHRNVFFIENTNITVCAFHYESQNSTLPVGLGLTKNILGFLFPFLIILTSYTLIWKTLKKAYEIQKNKPRKDDIFKIILAIVLFFFFSWVPHQIFTFMDVLIQLGLIRDCKIEDIVDTAMPITICLAYFNNCLNPLFYGFLGKKFKKYFLQLLKYIPPKAKSHSNLSTKMSTLSYRPSENGNSSTKKPAPCIEVE

>  <PDB ID(s) of Target Chain>  (1) 


>  <UniProt (SwissProt) Recommended Name of Target Chain>  (1) 
Type-1 angiotensin II receptor

>  <UniProt (SwissProt) Entry Name of Target Chain>  (1) 
AGTR1_BOVIN

>  <UniProt (SwissProt) Primary ID of Target Chain>  (1) 
P25104

>  <UniProt (SwissProt) Secondary ID(s) of Target Chain>  (1) 


>  <UniProt (SwissProt) Alternative ID(s) of Target Chain>  (1) 


>  <UniProt (TrEMBL) Submitted Name of Target Chain>  (1) 


>  <UniProt (TrEMBL) Entry Name of Target Chain>  (1) 


>  <UniProt (TrEMBL) Primary ID of Target Chain>  (1) 


>  <UniProt (TrEMBL) Secondary ID(s) of Target Chain>  (1) 


>  <UniProt (TrEMBL) Alternative ID(s) of Target Chain>  (1) 


$$$$
