
     RDKit          2D

 46 52  0  0  0  0  0  0  0  0999 V2000
   10.7246   -5.2129    0.0000 C   0  0  0  0  0  0  0  0  0  0  0  0
    6.3443   -5.2044    0.0000 N   0  0  0  0  0  0  0  0  0  0  0  0
    5.6099   -4.8201    0.0000 C   0  0  0  0  0  0  0  0  0  0  0  0
    4.8799   -5.2044    0.0000 C   0  0  0  0  0  0  0  0  0  0  0  0
   11.1601   -4.0473    0.0000 N   0  0  0  0  0  0  0  0  0  0  0  0
   10.0458   -4.7561    0.0000 N   0  0  0  0  0  0  0  0  0  0  0  0
   11.4163   -4.7646    0.0000 N   0  0  0  0  0  0  0  0  0  0  0  0
   10.3233   -4.0388    0.0000 N   0  0  0  0  0  0  0  0  0  0  0  0
    2.6812   -4.8201    0.0000 N   0  0  0  0  0  0  0  0  0  0  0  0
    2.6812   -4.0516    0.0000 C   0  0  0  0  0  0  0  0  0  0  0  0
    5.6099   -6.3571    0.0000 N   0  0  0  0  0  0  0  0  0  0  0  0
   10.7246   -5.9728    0.0000 C   0  0  0  0  0  0  0  0  0  0  0  0
    6.3443   -5.9728    0.0000 C   0  0  0  0  0  0  0  0  0  0  0  0
    4.1413   -4.8201    0.0000 C   0  0  0  0  0  0  0  0  0  0  0  0
    3.4112   -5.2044    0.0000 C   0  0  0  0  0  0  0  0  0  0  0  0
    4.8714   -5.9685    0.0000 C   0  0  0  0  0  0  0  0  0  0  0  0
    9.9946   -6.3571    0.0000 C   0  0  0  0  0  0  0  0  0  0  0  0
    7.0743   -4.8201    0.0000 C   0  0  0  0  0  0  0  0  0  0  0  0
    1.9468   -5.2001    0.0000 C   0  0  0  0  0  0  0  0  0  0  0  0
    9.2645   -5.9728    0.0000 C   0  0  0  0  0  0  0  0  0  0  0  0
    5.6099   -4.0516    0.0000 O   0  0  0  0  0  0  0  0  0  0  0  0
    1.9468   -3.6759    0.0000 O   0  0  0  0  0  0  0  0  0  0  0  0
    3.3984   -3.6162    0.0000 C   0  0  0  0  0  0  0  0  0  0  0  0
    3.4112   -5.9728    0.0000 C   0  0  0  0  0  0  0  0  0  0  0  0
    4.8457   -2.7409    0.0000 N   0  0  0  0  0  0  0  0  0  0  0  0
    4.1413   -6.3571    0.0000 C   0  0  0  0  0  0  0  0  0  0  0  0
    9.2645   -5.2044    0.0000 C   0  0  0  0  0  0  0  0  0  0  0  0
    8.5344   -6.3571    0.0000 C   0  0  0  0  0  0  0  0  0  0  0  0
    7.8044   -5.2044    0.0000 C   0  0  0  0  0  0  0  0  0  0  0  0
    9.2389   -4.9866    0.0000 C   0  0  0  0  0  0  0  0  0  0  0  0
    1.2339   -4.7433    0.0000 C   0  0  0  0  0  0  0  0  0  0  0  0
    7.8044   -5.9728    0.0000 C   0  0  0  0  0  0  0  0  0  0  0  0
    8.5344   -4.8201    0.0000 C   0  0  0  0  0  0  0  0  0  0  0  0
   11.4547   -6.3571    0.0000 C   0  0  0  0  0  0  0  0  0  0  0  0
    9.9946   -7.1256    0.0000 C   0  0  0  0  0  0  0  0  0  0  0  0
    4.8585   -3.5862    0.0000 C   0  0  0  0  0  0  0  0  0  0  0  0
    4.0986   -2.3354    0.0000 C   0  0  0  0  0  0  0  0  0  0  0  0
    4.1413   -4.0260    0.0000 C   0  0  0  0  0  0  0  0  0  0  0  0
    3.3813   -2.7708    0.0000 C   0  0  0  0  0  0  0  0  0  0  0  0
    1.2808   -3.9064    0.0000 C   0  0  0  0  0  0  0  0  0  0  0  0
    0.4995   -5.1360    0.0000 C   0  0  0  0  0  0  0  0  0  0  0  0
   11.4632   -7.1256    0.0000 C   0  0  0  0  0  0  0  0  0  0  0  0
   10.7246   -7.5055    0.0000 C   0  0  0  0  0  0  0  0  0  0  0  0
   -0.2134   -4.6792    0.0000 C   0  0  0  0  0  0  0  0  0  0  0  0
    0.5764   -3.4497    0.0000 C   0  0  0  0  0  0  0  0  0  0  0  0
   -0.1750   -3.8424    0.0000 C   0  0  0  0  0  0  0  0  0  0  0  0
  2 18  1  0
  3  2  1  0
  4  3  1  0
  5  7  1  0
  6  1  1  0
  7  1  2  0
  8  6  1  0
  9 15  1  0
 10  9  1  0
 11 13  2  0
 12  1  1  0
 13  2  1  0
 14  4  2  0
 15 14  1  0
 16 11  1  0
 17 12  1  0
 18 29  1  0
 19  9  1  0
 20 17  1  0
 21  3  2  0
 22 10  2  0
 23 10  1  0
 24 26  1  0
 25 37  2  0
 26 16  2  0
 27 20  2  0
 28 20  1  0
 29 32  1  0
 30  6  1  0
 31 19  1  0
 32 28  2  0
 33 27  1  0
 34 12  2  0
 35 17  2  0
 36 38  2  0
 37 39  1  0
 38 23  1  0
 39 23  2  0
 40 31  2  0
 41 31  1  0
 42 34  1  0
 43 42  2  0
 44 41  2  0
 45 40  1  0
 46 44  1  0
  5  8  2  0
 35 43  1  0
 33 29  2  0
  4 16  1  0
 15 24  2  0
 36 25  1  0
 45 46  2  0
M  END
>  <From>  (1) 
www.bindingDB.org

>  <BindingDB Reactant_set_id>  (1) 
50003758

>  <Ligand InChI>  (1) 
InChI=1S/C36H28N8O2/c1-42-34(39-40-41-42)31-10-6-5-9-30(31)27-13-11-26(12-14-27)22-43-24-38-33-16-15-29(21-32(33)36(43)46)44(23-25-7-3-2-4-8-25)35(45)28-17-19-37-20-18-28/h2-21,24H,22-23H2,1H3

>  <Ligand InChI Key>  (1) 
AYTYYLXFFZITOS-UHFFFAOYSA-N

>  <BindingDB MonomerID>  (1) 
50284677

>  <BindingDB Ligand Name>  (1) 
CHEMBL29063::N-Benzyl-N-{3-[2'-(1-methyl-1H-tetrazol-5-yl)-biphenyl-4-ylmethyl]-4-oxo-3,4-dihydro-quinazolin-6-yl}-isonicotinamide

>  <Target Name>  (1) 
Type-1 angiotensin II receptor

>  <Target Source Organism According to Curator or DataSource>  (1) 
Oryctolagus cuniculus

>  <Ki (nM)>  (1) 


>  <IC50 (nM)>  (1) 
 3.4

>  <Kd (nM)>  (1) 


>  <EC50 (nM)>  (1) 


>  <kon (M-1-s-1)>  (1) 


>  <koff (s-1)>  (1) 


>  <pH>  (1) 


>  <Temp C>  (1) 


>  <Curation/DataSource>  (1) 
ChEMBL

>  <Article DOI>  (1) 
10.1016/0960-894X(95)00224-H

>  <BindingDB Entry DOI>  (1) 
10.7270/Q2086589

>  <PMID>  (1) 


>  <PubChem AID>  (1) 


>  <Patent Number>  (1) 


>  <Authors>  (1) 
de Laszlo, SE; Chang, RS; Chen, TB; Faust, KA; Greenlee, WJ; Kivlighn, SD; Lotti, VJ; O'Malley, SS; Schorn, TW; Schorn, TW; Siegl, PK; Tran, J; Zingaro, GJ

>  <Institution>  (1) 
TBA

>  <Link to Ligand in BindingDB>  (1) 
http://www.bindingdb.org/bind/chemsearch/marvin/MolStructure.jsp?monomerid=50284677

>  <Link to Ligand-Target Pair in BindingDB>  (1) 
http://www.bindingdb.org/jsp/dbsearch/PrimarySearch_ki.jsp?energyterm=kJ/mole&tag=r21&monomerid=50284677&enzyme=Type-1+angiotensin+II+receptor&column=ki&startPg=0&Increment=50&submit=Search

>  <Ligand HET ID in PDB>  (1) 


>  <PDB ID(s) for Ligand-Target Complex>  (1) 


>  <PubChem CID of Ligand>  (1) 
44277439

>  <PubChem SID of Ligand>  (1) 
104126248

>  <ChEBI ID of Ligand>  (1) 


>  <ChEMBL ID of Ligand>  (1) 
CHEMBL29063

>  <DrugBank ID of Ligand>  (1) 


>  <IUPHAR_GRAC ID of Ligand>  (1) 


>  <KEGG ID of Ligand>  (1) 


>  <ZINC ID of Ligand>  (1) 
ZINC28767319

>  <Number of Protein Chains in Target (bigger than 1 implies a multichain complex)>  (1) 
1

>  <BindingDB Target Chain Sequence>  (1) 
MMLNSSTEDGIKRIQDDCPKAGRHNYIFVMIPTLYSIIFVVGIFGNSLAVIVIYFYMKLKTVASVFLLNLALADLCFLLTLPLWAVYTAMEYRWPFGNYLCKIASASVSFNLYASVFLLTCLSIDRYLAIVHPMKSRLRRTMLVAKVTCIIIWLLAGLASLPAIIHRNVFFIENTNITVCAFHYESQNSTLPIGLGLTKNILGFLFPFLIILTSYTLIWKALKKAYEIQKNKPRNDDIFKIIMAIVLFFFFSWVPHQIFTFLDVLIQLGVIHDCRIADIVDTAMPITICIAYFNNCLNPLFYGFLGKKFKKYFLQLLKYIPPKAKSHSNLSTKMSTLSYRPSDNVSSSSKKPVPCFEVE

>  <PDB ID(s) of Target Chain>  (1) 
6DO1,6OS0,6OS1,6OS2

>  <UniProt (SwissProt) Recommended Name of Target Chain>  (1) 
Type-1 angiotensin II receptor

>  <UniProt (SwissProt) Entry Name of Target Chain>  (1) 
AGTR1_RABIT

>  <UniProt (SwissProt) Primary ID of Target Chain>  (1) 
P34976

>  <UniProt (SwissProt) Secondary ID(s) of Target Chain>  (1) 


>  <UniProt (SwissProt) Alternative ID(s) of Target Chain>  (1) 


>  <UniProt (TrEMBL) Submitted Name of Target Chain>  (1) 


>  <UniProt (TrEMBL) Entry Name of Target Chain>  (1) 


>  <UniProt (TrEMBL) Primary ID of Target Chain>  (1) 


>  <UniProt (TrEMBL) Secondary ID(s) of Target Chain>  (1) 


>  <UniProt (TrEMBL) Alternative ID(s) of Target Chain>  (1) 


$$$$
