
     RDKit          2D

 50 55  0  0  0  0  0  0  0  0999 V2000
    3.7108   -5.3581    0.0000 N   0  0  0  0  0  0  0  0  0  0  0  0
    4.3473   -4.8465    0.0000 C   0  0  0  0  0  0  0  0  0  0  0  0
    4.0602   -4.0727    0.0000 C   0  0  0  0  0  0  0  0  0  0  0  0
    3.2365   -4.1184    0.0000 N   0  0  0  0  0  0  0  0  0  0  0  0
    3.0202   -4.9089    0.0000 C   0  0  0  0  0  0  0  0  0  0  0  0
    7.3175   -6.4190    0.0000 C   0  0  0  0  0  0  0  0  0  0  0  0
    6.8391   -5.1709    0.0000 N   0  0  0  0  0  0  0  0  0  0  0  0
    5.2583   -2.6125    0.0000 C   0  0  0  0  0  0  0  0  0  0  0  0
    5.3332   -3.4362    0.0000 N   0  0  0  0  0  0  0  0  0  0  0  0
    6.6269   -5.9697    0.0000 N   0  0  0  0  0  0  0  0  0  0  0  0
    7.6545   -5.1335    0.0000 N   0  0  0  0  0  0  0  0  0  0  0  0
    7.9540   -5.8948    0.0000 N   0  0  0  0  0  0  0  0  0  0  0  0
    5.1460   -5.0586    0.0000 C   0  0  0  0  0  0  0  0  0  0  0  0
    4.5095   -3.3863    0.0000 C   0  0  0  0  0  0  0  0  0  0  0  0
    7.3633   -7.2384    0.0000 C   0  0  0  0  0  0  0  0  0  0  0  0
    4.5095   -2.2714    0.0000 C   0  0  0  0  0  0  0  0  0  0  0  0
    6.6686   -7.6877    0.0000 C   0  0  0  0  0  0  0  0  0  0  0  0
    3.7482   -6.1818    0.0000 C   0  0  0  0  0  0  0  0  0  0  0  0
    6.0820   -3.7732    0.0000 C   0  0  0  0  0  0  0  0  0  0  0  0
    6.7559   -3.2989    0.0000 C   0  0  0  0  0  0  0  0  0  0  0  0
    5.9447   -7.3133    0.0000 C   0  0  0  0  0  0  0  0  0  0  0  0
    5.9322   -2.1383    0.0000 O   0  0  0  0  0  0  0  0  0  0  0  0
    5.1418   -5.6078    0.0000 O   0  0  0  0  0  0  0  0  0  0  0  0
    4.5969   -1.4394    0.0000 C   0  0  0  0  0  0  0  0  0  0  0  0
    3.7108   -2.4835    0.0000 C   0  0  0  0  0  0  0  0  0  0  0  0
    6.6768   -2.4835    0.0000 O   0  0  0  0  0  0  0  0  0  0  0  0
    5.9031   -6.4814    0.0000 C   0  0  0  0  0  0  0  0  0  0  0  0
    5.2458   -7.7543    0.0000 C   0  0  0  0  0  0  0  0  0  0  0  0
    4.4804   -6.5562    0.0000 C   0  0  0  0  0  0  0  0  0  0  0  0
    5.7326   -4.4845    0.0000 O   0  0  0  0  0  0  0  0  0  0  0  0
    2.2506   -5.2042    0.0000 C   0  0  0  0  0  0  0  0  0  0  0  0
    7.5005   -3.6484    0.0000 O   0  0  0  0  0  0  0  0  0  0  0  0
    5.1709   -6.1152    0.0000 C   0  0  0  0  0  0  0  0  0  0  0  0
    4.5178   -7.3799    0.0000 C   0  0  0  0  0  0  0  0  0  0  0  0
    8.0913   -7.6129    0.0000 C   0  0  0  0  0  0  0  0  0  0  0  0
    6.7143   -8.5114    0.0000 C   0  0  0  0  0  0  0  0  0  0  0  0
    3.9354   -0.9527    0.0000 C   0  0  0  0  0  0  0  0  0  0  0  0
    5.3664   -1.1107    0.0000 C   0  0  0  0  0  0  0  0  0  0  0  0
    3.1242   -1.8887    0.0000 C   0  0  0  0  0  0  0  0  0  0  0  0
    3.4944   -3.2740    0.0000 C   0  0  0  0  0  0  0  0  0  0  0  0
    1.6141   -4.6842    0.0000 C   0  0  0  0  0  0  0  0  0  0  0  0
    8.1370   -8.4407    0.0000 C   0  0  0  0  0  0  0  0  0  0  0  0
    7.4423   -8.8858    0.0000 C   0  0  0  0  0  0  0  0  0  0  0  0
    0.8404   -4.9713    0.0000 C   0  0  0  0  0  0  0  0  0  0  0  0
    5.4580   -0.2870    0.0000 C   0  0  0  0  0  0  0  0  0  0  0  0
    2.3255   -2.1008    0.0000 C   0  0  0  0  0  0  0  0  0  0  0  0
    2.6957   -3.4861    0.0000 C   0  0  0  0  0  0  0  0  0  0  0  0
    4.0228   -0.1290    0.0000 C   0  0  0  0  0  0  0  0  0  0  0  0
    4.7924    0.2080    0.0000 C   0  0  0  0  0  0  0  0  0  0  0  0
    2.1091   -2.8996    0.0000 C   0  0  0  0  0  0  0  0  0  0  0  0
  2  1  1  0
  3  2  2  0
  4  5  2  0
  5  1  1  0
  6 15  1  0
  7 10  1  0
  8  9  1  0
  9 14  1  0
 10  6  1  0
 11 12  1  0
 12  6  2  0
 13  2  1  0
 14  3  1  0
 15 17  1  0
 16  8  1  0
 17 21  1  0
 18  1  1  0
 19  9  1  0
 20 19  1  0
 21 28  2  0
 22  8  2  0
 23 13  2  0
 24 16  1  0
 25 16  1  0
 26 20  2  0
 27 33  2  0
 28 34  1  0
 29 18  1  0
 30 13  1  0
 31  5  1  0
 32 20  1  0
 33 29  1  0
 34 29  2  0
 35 15  2  0
 36 17  2  0
 37 24  2  0
 38 24  1  0
 39 25  2  0
 40 25  1  0
 41 31  1  0
 42 43  2  0
 43 36  1  0
 44 41  1  0
 45 38  2  0
 46 39  1  0
 47 40  2  0
 48 37  1  0
 49 45  1  0
 50 47  1  0
  4  3  1  0
 21 27  1  0
 42 35  1  0
  7 11  2  0
 50 46  2  0
 48 49  2  0
M  END
>  <From>  (1) 
www.bindingDB.org

>  <BindingDB Reactant_set_id>  (1) 
50469027

>  <Ligand InChI>  (1) 
InChI=1S/C38H35N7O5/c1-2-11-32-39-31(23-44(24-33(46)47)37(48)34(27-12-5-3-6-13-27)28-14-7-4-8-15-28)35(38(49)50)45(32)22-25-18-20-26(21-19-25)29-16-9-10-17-30(29)36-40-42-43-41-36/h3-10,12-21,34H,2,11,22-24H2,1H3,(H,46,47)(H,49,50)(H,40,41,42,43)

>  <Ligand InChI Key>  (1) 
NUUOSLMHRZRUTN-UHFFFAOYSA-N

>  <BindingDB MonomerID>  (1) 
50283177

>  <BindingDB Ligand Name>  (1) 
5-[(Carboxymethyl-diphenylacetyl-amino)-methyl]-2-propyl-3-[2'-(1H-tetrazol-5-yl)-biphenyl-4-ylmethyl]-3H-imidazole-4-carboxylic acid::CHEMBL308943

>  <Target Name>  (1) 
Type-1 angiotensin II receptor

>  <Target Source Organism According to Curator or DataSource>  (1) 
Homo sapiens

>  <Ki (nM)>  (1) 


>  <IC50 (nM)>  (1) 
 100

>  <Kd (nM)>  (1) 


>  <EC50 (nM)>  (1) 


>  <kon (M-1-s-1)>  (1) 


>  <koff (s-1)>  (1) 


>  <pH>  (1) 


>  <Temp C>  (1) 


>  <Curation/DataSource>  (1) 
ChEMBL

>  <Article DOI>  (1) 
10.1016/S0960-894X(00)80076-1

>  <BindingDB Entry DOI>  (1) 
10.7270/Q2JQ110M

>  <PMID>  (1) 


>  <PubChem AID>  (1) 


>  <Patent Number>  (1) 


>  <Authors>  (1) 
Olson, RE; Liu, J; Lalka, GK; VanAtten, MK; Wexler, RR; Chiu, AT; Nguyen, TT; McCall, DE; Wong, PC; Timmermans, PB

>  <Institution>  (1) 
TBA

>  <Link to Ligand in BindingDB>  (1) 
http://www.bindingdb.org/bind/chemsearch/marvin/MolStructure.jsp?monomerid=50283177

>  <Link to Ligand-Target Pair in BindingDB>  (1) 
http://www.bindingdb.org/jsp/dbsearch/PrimarySearch_ki.jsp?energyterm=kJ/mole&tag=r21&monomerid=50283177&enzyme=Type-1+angiotensin+II+receptor&column=ki&startPg=0&Increment=50&submit=Search

>  <Ligand HET ID in PDB>  (1) 


>  <PDB ID(s) for Ligand-Target Complex>  (1) 


>  <PubChem CID of Ligand>  (1) 
44311472

>  <PubChem SID of Ligand>  (1) 
104124851

>  <ChEBI ID of Ligand>  (1) 


>  <ChEMBL ID of Ligand>  (1) 
CHEMBL308943

>  <DrugBank ID of Ligand>  (1) 


>  <IUPHAR_GRAC ID of Ligand>  (1) 


>  <KEGG ID of Ligand>  (1) 


>  <ZINC ID of Ligand>  (1) 
ZINC26375688

>  <Number of Protein Chains in Target (bigger than 1 implies a multichain complex)>  (1) 
1

>  <BindingDB Target Chain Sequence>  (1) 
MILNSSTEDGIKRIQDDCPKAGRHNYIFVMIPTLYSIIFVVGIFGNSLVVIVIYFYMKLKTVASVFLLNLALADLCFLLTLPLWAVYTAMEYRWPFGNYLCKIASASVSFNLYASVFLLTCLSIDRYLAIVHPMKSRLRRTMLVAKVTCIIIWLLAGLASLPAIIHRNVFFIENTNITVCAFHYESQNSTLPIGLGLTKNILGFLFPFLIILTSYTLIWKALKKAYEIQKNKPRNDDIFKIIMAIVLFFFFSWIPHQIFTFLDVLIQLGIIRDCRIADIVDTAMPITICIAYFNNCLNPLFYGFLGKKFKRYFLQLLKYIPPKAKSHSNLSTKMSTLSYRPSDNVSSSTKKPAPCFEVE

>  <PDB ID(s) of Target Chain>  (1) 
6DO1,6OS0,6OS1,6OS2

>  <UniProt (SwissProt) Recommended Name of Target Chain>  (1) 
Type-1 angiotensin II receptor

>  <UniProt (SwissProt) Entry Name of Target Chain>  (1) 
AGTR1_HUMAN

>  <UniProt (SwissProt) Primary ID of Target Chain>  (1) 
P30556

>  <UniProt (SwissProt) Secondary ID(s) of Target Chain>  (1) 
Q13725 Q8TBK4

>  <UniProt (SwissProt) Alternative ID(s) of Target Chain>  (1) 


>  <UniProt (TrEMBL) Submitted Name of Target Chain>  (1) 


>  <UniProt (TrEMBL) Entry Name of Target Chain>  (1) 


>  <UniProt (TrEMBL) Primary ID of Target Chain>  (1) 


>  <UniProt (TrEMBL) Secondary ID(s) of Target Chain>  (1) 


>  <UniProt (TrEMBL) Alternative ID(s) of Target Chain>  (1) 


$$$$
