
     RDKit          2D

 35 39  0  0  0  0  0  0  0  0999 V2000
   -0.0286   -3.3413    0.0000 N   0  0  0  0  0  0  0  0  0  0  0  0
    0.2637   -4.6480    0.0000 N   0  0  0  0  0  0  0  0  0  0  0  0
    0.5904   -3.8915    0.0000 C   0  0  0  0  0  0  0  0  0  0  0  0
   -0.7393   -3.7712    0.0000 N   0  0  0  0  0  0  0  0  0  0  0  0
   -0.5616   -4.5792    0.0000 C   0  0  0  0  0  0  0  0  0  0  0  0
    3.9603   -3.8743    0.0000 C   0  0  0  0  0  0  0  0  0  0  0  0
    3.1350   -3.8170    0.0000 N   0  0  0  0  0  0  0  0  0  0  0  0
    2.9459   -3.0146    0.0000 N   0  0  0  0  0  0  0  0  0  0  0  0
    4.2698   -3.1178    0.0000 N   0  0  0  0  0  0  0  0  0  0  0  0
    3.6508   -2.5848    0.0000 N   0  0  0  0  0  0  0  0  0  0  0  0
    0.0402   -2.5274    0.0000 C   0  0  0  0  0  0  0  0  0  0  0  0
    4.3901   -4.5792    0.0000 C   0  0  0  0  0  0  0  0  0  0  0  0
    3.9947   -5.3014    0.0000 C   0  0  0  0  0  0  0  0  0  0  0  0
    0.6935   -5.3644    0.0000 C   0  0  0  0  0  0  0  0  0  0  0  0
    1.3985   -3.7024    0.0000 O   0  0  0  0  0  0  0  0  0  0  0  0
    3.1694   -5.3186    0.0000 C   0  0  0  0  0  0  0  0  0  0  0  0
    0.7967   -2.1836    0.0000 C   0  0  0  0  0  0  0  0  0  0  0  0
    2.7739   -6.0407    0.0000 C   0  0  0  0  0  0  0  0  0  0  0  0
    2.7510   -4.6136    0.0000 C   0  0  0  0  0  0  0  0  0  0  0  0
    1.5188   -5.3530    0.0000 C   0  0  0  0  0  0  0  0  0  0  0  0
   -1.1004   -5.1982    0.0000 C   0  0  0  0  0  0  0  0  0  0  0  0
    1.9429   -6.0579    0.0000 C   0  0  0  0  0  0  0  0  0  0  0  0
    1.9143   -4.6308    0.0000 C   0  0  0  0  0  0  0  0  0  0  0  0
   -0.6304   -2.0518    0.0000 C   0  0  0  0  0  0  0  0  0  0  0  0
    5.2154   -4.5621    0.0000 C   0  0  0  0  0  0  0  0  0  0  0  0
    4.4187   -6.0063    0.0000 C   0  0  0  0  0  0  0  0  0  0  0  0
    1.4672   -2.6536    0.0000 C   0  0  0  0  0  0  0  0  0  0  0  0
    0.8655   -1.3641    0.0000 C   0  0  0  0  0  0  0  0  0  0  0  0
   -1.9085   -5.0377    0.0000 C   0  0  0  0  0  0  0  0  0  0  0  0
   -2.4529   -5.6567    0.0000 C   0  0  0  0  0  0  0  0  0  0  0  0
    5.2440   -6.0005    0.0000 C   0  0  0  0  0  0  0  0  0  0  0  0
    5.6452   -5.2784    0.0000 C   0  0  0  0  0  0  0  0  0  0  0  0
   -0.5616   -1.2379    0.0000 C   0  0  0  0  0  0  0  0  0  0  0  0
   -3.2610   -5.4905    0.0000 C   0  0  0  0  0  0  0  0  0  0  0  0
    0.1949   -0.8826    0.0000 C   0  0  0  0  0  0  0  0  0  0  0  0
  2  3  1  0
  3  1  1  0
  4  1  1  0
  5  4  2  0
  6 12  1  0
  7  6  1  0
  8  7  1  0
  9  6  2  0
 10  9  1  0
 11  1  1  0
 12 13  1  0
 13 16  1  0
 14  2  1  0
 15  3  2  0
 16 19  2  0
 17 11  2  0
 18 22  2  0
 19 23  1  0
 20 14  1  0
 21  5  1  0
 22 20  1  0
 23 20  2  0
 24 11  1  0
 25 12  2  0
 26 13  2  0
 27 17  1  0
 28 17  1  0
 29 21  1  0
 30 29  1  0
 31 26  1  0
 32 31  2  0
 33 24  2  0
 34 30  1  0
 35 33  1  0
  2  5  1  0
 35 28  2  0
 16 18  1  0
 25 32  1  0
  8 10  2  0
M  END
>  <From>  (1) 
www.bindingDB.org

>  <BindingDB Reactant_set_id>  (1) 
50060464

>  <Ligand InChI>  (1) 
InChI=1S/C27H27N7O/c1-3-4-13-25-30-34(24-12-8-5-9-19(24)2)27(35)33(25)18-20-14-16-21(17-15-20)22-10-6-7-11-23(22)26-28-31-32-29-26/h5-12,14-17H,3-4,13,18H2,1-2H3,(H,28,29,31,32)

>  <Ligand InChI Key>  (1) 
NQNQDDDEXLGJHA-UHFFFAOYSA-N

>  <BindingDB MonomerID>  (1) 
50044533

>  <BindingDB Ligand Name>  (1) 
5-Butyl-4-[2'-(2H-tetrazol-5-yl)-biphenyl-4-ylmethyl]-2-o-tolyl-2,4-dihydro-[1,2,4]triazol-3-one::CHEMBL83180

>  <Target Name>  (1) 
Type-1 angiotensin II receptor

>  <Target Source Organism According to Curator or DataSource>  (1) 
Oryctolagus cuniculus

>  <Ki (nM)>  (1) 


>  <IC50 (nM)>  (1) 
 4.1

>  <Kd (nM)>  (1) 


>  <EC50 (nM)>  (1) 


>  <kon (M-1-s-1)>  (1) 


>  <koff (s-1)>  (1) 


>  <pH>  (1) 


>  <Temp C>  (1) 


>  <Curation/DataSource>  (1) 
ChEMBL

>  <Article DOI>  (1) 
10.1021/jm00069a015

>  <BindingDB Entry DOI>  (1) 
10.7270/Q2KP817C

>  <PMID>  (1) 
8355255

>  <PubChem AID>  (1) 


>  <Patent Number>  (1) 


>  <Authors>  (1) 
Chang, LL; Ashton, WT; Flanagan, KL; Strelitz, RA; MacCoss, M; Greenlee, WJ; Chang, RS; Lotti, VJ; Faust, KA; Chen, TB

>  <Institution>  (1) 
Merck Research Laboratories

>  <Link to Ligand in BindingDB>  (1) 
http://www.bindingdb.org/bind/chemsearch/marvin/MolStructure.jsp?monomerid=50044533

>  <Link to Ligand-Target Pair in BindingDB>  (1) 
http://www.bindingdb.org/jsp/dbsearch/PrimarySearch_ki.jsp?energyterm=kJ/mole&tag=r21&monomerid=50044533&enzyme=Type-1+angiotensin+II+receptor&column=ki&startPg=0&Increment=50&submit=Search

>  <Ligand HET ID in PDB>  (1) 


>  <PDB ID(s) for Ligand-Target Complex>  (1) 


>  <PubChem CID of Ligand>  (1) 
14956738

>  <PubChem SID of Ligand>  (1) 
103975771

>  <ChEBI ID of Ligand>  (1) 


>  <ChEMBL ID of Ligand>  (1) 
CHEMBL83180

>  <DrugBank ID of Ligand>  (1) 


>  <IUPHAR_GRAC ID of Ligand>  (1) 


>  <KEGG ID of Ligand>  (1) 


>  <ZINC ID of Ligand>  (1) 
ZINC13832632

>  <Number of Protein Chains in Target (bigger than 1 implies a multichain complex)>  (1) 
1

>  <BindingDB Target Chain Sequence>  (1) 
MMLNSSTEDGIKRIQDDCPKAGRHNYIFVMIPTLYSIIFVVGIFGNSLAVIVIYFYMKLKTVASVFLLNLALADLCFLLTLPLWAVYTAMEYRWPFGNYLCKIASASVSFNLYASVFLLTCLSIDRYLAIVHPMKSRLRRTMLVAKVTCIIIWLLAGLASLPAIIHRNVFFIENTNITVCAFHYESQNSTLPIGLGLTKNILGFLFPFLIILTSYTLIWKALKKAYEIQKNKPRNDDIFKIIMAIVLFFFFSWVPHQIFTFLDVLIQLGVIHDCRIADIVDTAMPITICIAYFNNCLNPLFYGFLGKKFKKYFLQLLKYIPPKAKSHSNLSTKMSTLSYRPSDNVSSSSKKPVPCFEVE

>  <PDB ID(s) of Target Chain>  (1) 
6DO1,6OS0,6OS1,6OS2

>  <UniProt (SwissProt) Recommended Name of Target Chain>  (1) 
Type-1 angiotensin II receptor

>  <UniProt (SwissProt) Entry Name of Target Chain>  (1) 
AGTR1_RABIT

>  <UniProt (SwissProt) Primary ID of Target Chain>  (1) 
P34976

>  <UniProt (SwissProt) Secondary ID(s) of Target Chain>  (1) 


>  <UniProt (SwissProt) Alternative ID(s) of Target Chain>  (1) 


>  <UniProt (TrEMBL) Submitted Name of Target Chain>  (1) 


>  <UniProt (TrEMBL) Entry Name of Target Chain>  (1) 


>  <UniProt (TrEMBL) Primary ID of Target Chain>  (1) 


>  <UniProt (TrEMBL) Secondary ID(s) of Target Chain>  (1) 


>  <UniProt (TrEMBL) Alternative ID(s) of Target Chain>  (1) 


$$$$
