
     RDKit          2D

 39 44  0  0  0  0  0  0  0  0999 V2000
    2.7213   -1.2089    0.0000 N   0  0  0  0  0  0  0  0  0  0  0  0
    3.3859   -0.7276    0.0000 C   0  0  0  0  0  0  0  0  0  0  0  0
    3.1280    0.0630    0.0000 N   0  0  0  0  0  0  0  0  0  0  0  0
    2.3031    0.0630    0.0000 N   0  0  0  0  0  0  0  0  0  0  0  0
    2.0510   -0.7276    0.0000 C   0  0  0  0  0  0  0  0  0  0  0  0
    6.2791   -2.4463    0.0000 C   0  0  0  0  0  0  0  0  0  0  0  0
    5.8666   -1.1859    0.0000 N   0  0  0  0  0  0  0  0  0  0  0  0
    5.6088   -1.9651    0.0000 N   0  0  0  0  0  0  0  0  0  0  0  0
    6.6915   -1.1745    0.0000 N   0  0  0  0  0  0  0  0  0  0  0  0
    6.9494   -1.9651    0.0000 N   0  0  0  0  0  0  0  0  0  0  0  0
    6.2905   -3.2713    0.0000 C   0  0  0  0  0  0  0  0  0  0  0  0
    5.5744   -3.6838    0.0000 C   0  0  0  0  0  0  0  0  0  0  0  0
    2.7213   -2.0339    0.0000 C   0  0  0  0  0  0  0  0  0  0  0  0
    3.6151    0.7333    0.0000 C   0  0  0  0  0  0  0  0  0  0  0  0
    4.1650   -0.9797    0.0000 O   0  0  0  0  0  0  0  0  0  0  0  0
    4.8639   -3.2713    0.0000 C   0  0  0  0  0  0  0  0  0  0  0  0
    3.2713    1.4723    0.0000 C   0  0  0  0  0  0  0  0  0  0  0  0
    3.4202    2.8874    0.0000 C   0  0  0  0  0  0  0  0  0  0  0  0
    3.7526    2.1426    0.0000 C   0  0  0  0  0  0  0  0  0  0  0  0
    2.5952    2.9676    0.0000 C   0  0  0  0  0  0  0  0  0  0  0  0
    4.1593   -3.6838    0.0000 C   0  0  0  0  0  0  0  0  0  0  0  0
    4.8697   -2.4463    0.0000 C   0  0  0  0  0  0  0  0  0  0  0  0
    2.1198    2.2973    0.0000 C   0  0  0  0  0  0  0  0  0  0  0  0
    3.4374   -2.4463    0.0000 C   0  0  0  0  0  0  0  0  0  0  0  0
    2.4635    1.5582    0.0000 C   0  0  0  0  0  0  0  0  0  0  0  0
    1.2718   -0.9854    0.0000 C   0  0  0  0  0  0  0  0  0  0  0  0
    3.4432   -3.2713    0.0000 C   0  0  0  0  0  0  0  0  0  0  0  0
    4.1479   -2.0339    0.0000 C   0  0  0  0  0  0  0  0  0  0  0  0
    7.0009   -3.6838    0.0000 C   0  0  0  0  0  0  0  0  0  0  0  0
    5.5744   -4.5088    0.0000 C   0  0  0  0  0  0  0  0  0  0  0  0
    3.8901    3.5577    0.0000 C   0  0  0  0  0  0  0  0  0  0  0  0
    2.2573    3.7238    0.0000 C   0  0  0  0  0  0  0  0  0  0  0  0
    0.6531   -0.4355    0.0000 C   0  0  0  0  0  0  0  0  0  0  0  0
   -0.1317   -0.6933    0.0000 C   0  0  0  0  0  0  0  0  0  0  0  0
    6.2905   -4.9213    0.0000 C   0  0  0  0  0  0  0  0  0  0  0  0
    7.0009   -4.5088    0.0000 C   0  0  0  0  0  0  0  0  0  0  0  0
   -0.7505   -0.1433    0.0000 C   0  0  0  0  0  0  0  0  0  0  0  0
    3.5463    4.3082    0.0000 C   0  0  0  0  0  0  0  0  0  0  0  0
    2.7213    4.3827    0.0000 C   0  0  0  0  0  0  0  0  0  0  0  0
  2  1  1  0
  3  2  1  0
  4  5  2  0
  5  1  1  0
  6 11  1  0
  7  8  1  0
  8  6  1  0
  9 10  1  0
 10  6  2  0
 11 12  1  0
 12 16  1  0
 13  1  1  0
 14  3  1  0
 15  2  2  0
 16 22  2  0
 17 14  1  0
 18 19  2  0
 19 17  1  0
 20 23  2  0
 21 27  2  0
 22 28  1  0
 23 25  1  0
 24 13  1  0
 25 17  2  0
 26  5  1  0
 27 24  1  0
 28 24  2  0
 29 11  2  0
 30 12  2  0
 31 18  1  0
 32 20  1  0
 33 26  1  0
 34 33  1  0
 35 30  1  0
 36 35  2  0
 37 34  1  0
 38 31  2  0
 39 32  2  0
  3  4  1  0
 21 16  1  0
 20 18  1  0
 36 29  1  0
 38 39  1  0
  9  7  2  0
M  END
>  <From>  (1) 
www.bindingDB.org

>  <BindingDB Reactant_set_id>  (1) 
50060537

>  <Ligand InChI>  (1) 
InChI=1S/C31H29N7O/c1-2-3-12-29-34-38(21-23-15-16-24-8-4-5-9-26(24)19-23)31(39)37(29)20-22-13-17-25(18-14-22)27-10-6-7-11-28(27)30-32-35-36-33-30/h4-11,13-19H,2-3,12,20-21H2,1H3,(H,32,33,35,36)

>  <Ligand InChI Key>  (1) 
ASSQJXCGYVVNGG-UHFFFAOYSA-N

>  <BindingDB MonomerID>  (1) 
50044362

>  <BindingDB Ligand Name>  (1) 
5-Butyl-2-naphthalen-2-ylmethyl-4-[2'-(1H-tetrazol-5-yl)-biphenyl-4-ylmethyl]-2,4-dihydro-[1,2,4]triazol-3-one::5-Butyl-2-naphthalen-2-ylmethyl-4-[2'-(2H-tetrazol-5-yl)-biphenyl-4-ylmethyl]-2,4-dihydro-[1,2,4]triazol-3-one::CHEMBL86986

>  <Target Name>  (1) 
Type-1 angiotensin II receptor

>  <Target Source Organism According to Curator or DataSource>  (1) 
Oryctolagus cuniculus

>  <Ki (nM)>  (1) 


>  <IC50 (nM)>  (1) 
 27

>  <Kd (nM)>  (1) 


>  <EC50 (nM)>  (1) 


>  <kon (M-1-s-1)>  (1) 


>  <koff (s-1)>  (1) 


>  <pH>  (1) 


>  <Temp C>  (1) 


>  <Curation/DataSource>  (1) 
ChEMBL

>  <Article DOI>  (1) 
10.1021/jm00069a015

>  <BindingDB Entry DOI>  (1) 
10.7270/Q2KP817C

>  <PMID>  (1) 
8355255

>  <PubChem AID>  (1) 


>  <Patent Number>  (1) 


>  <Authors>  (1) 
Chang, LL; Ashton, WT; Flanagan, KL; Strelitz, RA; MacCoss, M; Greenlee, WJ; Chang, RS; Lotti, VJ; Faust, KA; Chen, TB

>  <Institution>  (1) 
Merck Research Laboratories

>  <Link to Ligand in BindingDB>  (1) 
http://www.bindingdb.org/bind/chemsearch/marvin/MolStructure.jsp?monomerid=50044362

>  <Link to Ligand-Target Pair in BindingDB>  (1) 
http://www.bindingdb.org/jsp/dbsearch/PrimarySearch_ki.jsp?energyterm=kJ/mole&tag=r21&monomerid=50044362&enzyme=Type-1+angiotensin+II+receptor&column=ki&startPg=0&Increment=50&submit=Search

>  <Ligand HET ID in PDB>  (1) 


>  <PDB ID(s) for Ligand-Target Complex>  (1) 


>  <PubChem CID of Ligand>  (1) 
14956803

>  <PubChem SID of Ligand>  (1) 
103975617

>  <ChEBI ID of Ligand>  (1) 


>  <ChEMBL ID of Ligand>  (1) 
CHEMBL86986

>  <DrugBank ID of Ligand>  (1) 


>  <IUPHAR_GRAC ID of Ligand>  (1) 


>  <KEGG ID of Ligand>  (1) 


>  <ZINC ID of Ligand>  (1) 
ZINC13832707

>  <Number of Protein Chains in Target (bigger than 1 implies a multichain complex)>  (1) 
1

>  <BindingDB Target Chain Sequence>  (1) 
MMLNSSTEDGIKRIQDDCPKAGRHNYIFVMIPTLYSIIFVVGIFGNSLAVIVIYFYMKLKTVASVFLLNLALADLCFLLTLPLWAVYTAMEYRWPFGNYLCKIASASVSFNLYASVFLLTCLSIDRYLAIVHPMKSRLRRTMLVAKVTCIIIWLLAGLASLPAIIHRNVFFIENTNITVCAFHYESQNSTLPIGLGLTKNILGFLFPFLIILTSYTLIWKALKKAYEIQKNKPRNDDIFKIIMAIVLFFFFSWVPHQIFTFLDVLIQLGVIHDCRIADIVDTAMPITICIAYFNNCLNPLFYGFLGKKFKKYFLQLLKYIPPKAKSHSNLSTKMSTLSYRPSDNVSSSSKKPVPCFEVE

>  <PDB ID(s) of Target Chain>  (1) 
6DO1,6OS0,6OS1,6OS2

>  <UniProt (SwissProt) Recommended Name of Target Chain>  (1) 
Type-1 angiotensin II receptor

>  <UniProt (SwissProt) Entry Name of Target Chain>  (1) 
AGTR1_RABIT

>  <UniProt (SwissProt) Primary ID of Target Chain>  (1) 
P34976

>  <UniProt (SwissProt) Secondary ID(s) of Target Chain>  (1) 


>  <UniProt (SwissProt) Alternative ID(s) of Target Chain>  (1) 


>  <UniProt (TrEMBL) Submitted Name of Target Chain>  (1) 


>  <UniProt (TrEMBL) Entry Name of Target Chain>  (1) 


>  <UniProt (TrEMBL) Primary ID of Target Chain>  (1) 


>  <UniProt (TrEMBL) Secondary ID(s) of Target Chain>  (1) 


>  <UniProt (TrEMBL) Alternative ID(s) of Target Chain>  (1) 


$$$$
