
     RDKit          2D

 42 48  0  0  1  0  0  0  0  0999 V2000
   10.8125    0.5208    0.0000 N   0  0  0  0  0  0  0  0  0  0  0  0
   10.1000    0.1000    0.0000 C   0  0  0  0  0  0  0  0  0  0  0  0
    9.3792    0.5125    0.0000 C   0  0  0  0  0  0  0  0  0  0  0  0
   10.8042    1.3458    0.0000 C   0  0  0  0  0  0  0  0  0  0  0  0
   10.0917    1.7583    0.0000 N   0  0  0  0  0  0  0  0  0  0  0  0
   12.9667   -3.1667    0.0000 C   0  0  0  0  0  0  0  0  0  0  0  0
   14.2042   -2.4542    0.0000 N   0  0  0  0  0  0  0  0  0  0  0  0
    7.2375    0.1000    0.0000 C   0  0  0  0  0  0  0  0  0  0  0  0
   13.3792   -2.4542    0.0000 N   0  0  0  0  0  0  0  0  0  0  0  0
   14.6125   -3.1667    0.0000 N   0  0  0  0  0  0  0  0  0  0  0  0
    7.1417   -0.7167    0.0000 O   0  0  0  0  0  0  0  0  0  0  0  0
    9.3792    1.3375    0.0000 C   0  0  0  0  0  0  0  0  0  0  0  0
    6.3292   -0.8875    0.0000 N   0  0  0  0  0  0  0  0  0  0  0  0
   13.6792   -3.5792    0.0000 N   0  0  0  0  0  0  0  0  0  0  0  0
    8.6667    0.0958    0.0000 C   0  0  0  0  0  0  0  0  0  0  0  0
   12.2625   -3.5917    0.0000 C   0  0  0  0  0  0  0  0  0  0  0  0
    6.4792    0.4458    0.0000 C   0  0  0  0  0  0  0  0  0  0  0  0
    7.9542    0.5083    0.0000 C   0  0  0  0  0  0  0  0  0  0  0  0
   11.5417   -3.1875    0.0000 C   0  0  0  0  0  0  0  0  0  0  0  0
    5.9250   -0.1667    0.0000 C   0  0  0  0  0  0  0  0  0  0  0  0
   11.5292    0.1083    0.0000 C   0  0  0  0  0  0  0  0  0  0  0  0
   10.1000   -0.7250    0.0000 O   0  0  0  0  0  0  0  0  0  0  0  0
   11.5417   -2.3625    0.0000 C   0  0  0  0  0  0  0  0  0  0  0  0
    8.6667    1.7500    0.0000 C   0  0  0  0  0  0  0  0  0  0  0  0
    7.9542    1.3375    0.0000 C   0  0  0  0  0  0  0  0  0  0  0  0
   10.8250   -1.9542    0.0000 C   0  0  0  0  0  0  0  0  0  0  0  0
   12.2542   -1.9417    0.0000 C   0  0  0  0  0  0  0  0  0  0  0  0
   11.5292   -0.7167    0.0000 C   0  0  0  0  0  0  0  0  0  0  0  0
    5.7792   -1.4917    0.0000 C   0  0  0  0  0  0  0  0  0  0  0  0
   11.5167    1.7625    0.0000 C   0  0  0  0  0  0  0  0  0  0  0  0
   10.8167   -1.1292    0.0000 C   0  0  0  0  0  0  0  0  0  0  0  0
   12.2500   -1.1167    0.0000 C   0  0  0  0  0  0  0  0  0  0  0  0
    7.2292    0.9250    0.0000 C   0  0  0  0  0  0  0  0  0  0  0  0
   12.2667   -4.4125    0.0000 C   0  0  0  0  0  0  0  0  0  0  0  0
   10.8292   -3.6000    0.0000 C   0  0  0  0  0  0  0  0  0  0  0  0
    5.1167   -0.3375    0.0000 C   0  0  0  0  0  0  0  0  0  0  0  0
    5.0292   -1.1542    0.0000 C   0  0  0  0  0  0  0  0  0  0  0  0
   12.2375    1.3583    0.0000 C   0  0  0  0  0  0  0  0  0  0  0  0
   12.9500    1.7708    0.0000 C   0  0  0  0  0  0  0  0  0  0  0  0
   11.5542   -4.8292    0.0000 C   0  0  0  0  0  0  0  0  0  0  0  0
   10.8292   -4.4250    0.0000 C   0  0  0  0  0  0  0  0  0  0  0  0
   13.6667    1.3625    0.0000 C   0  0  0  0  0  0  0  0  0  0  0  0
  2  1  1  0
  3  2  1  0
  4  1  1  0
  5  4  2  0
  6 16  1  0
  7  9  1  0
  8 18  1  0
  9  6  1  0
 10 14  1  0
  8 11  1  0
 12  5  1  0
 13 11  1  0
 14  6  2  0
 15  3  2  0
 16 19  1  0
  8 17  1  0
 18 15  1  0
 19 23  1  0
 20 17  1  6
 21  1  1  0
 22  2  2  0
 23 27  2  0
 24 12  2  0
 25 24  1  0
 26 31  2  0
 27 32  1  0
 28 21  1  0
 29 13  1  0
 30  4  1  0
 31 28  1  0
 32 28  2  0
  8 33  1  6
 34 16  2  0
 35 19  2  0
 20 36  1  0
 37 36  1  0
 38 30  1  0
 39 38  1  0
 40 41  2  0
 41 35  1  0
 42 39  1  0
 12  3  1  0
 26 23  1  0
 25 18  2  0
 20 13  1  0
 40 34  1  0
 29 37  1  0
  7 10  2  0
M  END
>  <From>  (1) 
www.bindingDB.org

>  <BindingDB Reactant_set_id>  (1) 
50468347

>  <Ligand InChI>  (1) 
InChI=1S/C33H35N7O2/c1-3-4-11-30-34-29-17-16-24(33(2)20-25-8-7-18-40(25)42-33)19-28(29)32(41)39(30)21-22-12-14-23(15-13-22)26-9-5-6-10-27(26)31-35-37-38-36-31/h5-6,9-10,12-17,19,25H,3-4,7-8,11,18,20-21H2,1-2H3,(H,35,36,37,38)/t25-,33+/m1/s1

>  <Ligand InChI Key>  (1) 
AAZOKMBAJGOCHB-HPMVVLTCSA-N

>  <BindingDB MonomerID>  (1) 
50282792

>  <BindingDB Ligand Name>  (1) 
2-Butyl-6-((2S,3aR)-2-methyl-hexahydro-pyrrolo[1,2-b]isoxazol-2-yl)-3-[2'-(1H-tetrazol-5-yl)-biphenyl-4-ylmethyl]-3H-quinazolin-4-one::CHEMBL47177::CL-332877

>  <Target Name>  (1) 
Type-1 angiotensin II receptor

>  <Target Source Organism According to Curator or DataSource>  (1) 
Bos taurus

>  <Ki (nM)>  (1) 


>  <IC50 (nM)>  (1) 
 27

>  <Kd (nM)>  (1) 


>  <EC50 (nM)>  (1) 


>  <kon (M-1-s-1)>  (1) 


>  <koff (s-1)>  (1) 


>  <pH>  (1) 


>  <Temp C>  (1) 


>  <Curation/DataSource>  (1) 
ChEMBL

>  <Article DOI>  (1) 
10.1016/S0960-894X(00)80365-0

>  <BindingDB Entry DOI>  (1) 
10.7270/Q2JS9QB3

>  <PMID>  (1) 


>  <PubChem AID>  (1) 


>  <Patent Number>  (1) 


>  <Authors>  (1) 
Levin, JI; Chan, PS; Coupet, J; Bailey, TK; Vice, G; Thibault, L; F., L; Venkatesan, AM; Cobuzzi, A

>  <Institution>  (1) 
TBA

>  <Link to Ligand in BindingDB>  (1) 
http://www.bindingdb.org/bind/chemsearch/marvin/MolStructure.jsp?monomerid=50282792

>  <Link to Ligand-Target Pair in BindingDB>  (1) 
http://www.bindingdb.org/jsp/dbsearch/PrimarySearch_ki.jsp?energyterm=kJ/mole&tag=r21&monomerid=50282792&enzyme=Type-1+angiotensin+II+receptor&column=ki&startPg=0&Increment=50&submit=Search

>  <Ligand HET ID in PDB>  (1) 


>  <PDB ID(s) for Ligand-Target Complex>  (1) 


>  <PubChem CID of Ligand>  (1) 
11527144

>  <PubChem SID of Ligand>  (1) 
104124466

>  <ChEBI ID of Ligand>  (1) 


>  <ChEMBL ID of Ligand>  (1) 
CHEMBL47177

>  <DrugBank ID of Ligand>  (1) 


>  <IUPHAR_GRAC ID of Ligand>  (1) 


>  <KEGG ID of Ligand>  (1) 


>  <ZINC ID of Ligand>  (1) 
ZINC03842589

>  <Number of Protein Chains in Target (bigger than 1 implies a multichain complex)>  (1) 
1

>  <BindingDB Target Chain Sequence>  (1) 
MILNSSTEDGIKRIQDDCPKAGRHNYIFIMIPTLYSIIFVVGIFGNSLVVIVIYFYMKLKTVASVFLLNLALADLCFLLTLPLWAVYTAMEYRWPFGNYLCKIASASVSFNLYASVFLLTCLSIDRYLAIVHPMKSRLRRTMLVAKVTCIIIWLLAGLASLPTIIHRNVFFIENTNITVCAFHYESQNSTLPVGLGLTKNILGFLFPFLIILTSYTLIWKTLKKAYEIQKNKPRKDDIFKIILAIVLFFFFSWVPHQIFTFMDVLIQLGLIRDCKIEDIVDTAMPITICLAYFNNCLNPLFYGFLGKKFKKYFLQLLKYIPPKAKSHSNLSTKMSTLSYRPSENGNSSTKKPAPCIEVE

>  <PDB ID(s) of Target Chain>  (1) 


>  <UniProt (SwissProt) Recommended Name of Target Chain>  (1) 
Type-1 angiotensin II receptor

>  <UniProt (SwissProt) Entry Name of Target Chain>  (1) 
AGTR1_BOVIN

>  <UniProt (SwissProt) Primary ID of Target Chain>  (1) 
P25104

>  <UniProt (SwissProt) Secondary ID(s) of Target Chain>  (1) 


>  <UniProt (SwissProt) Alternative ID(s) of Target Chain>  (1) 


>  <UniProt (TrEMBL) Submitted Name of Target Chain>  (1) 


>  <UniProt (TrEMBL) Entry Name of Target Chain>  (1) 


>  <UniProt (TrEMBL) Primary ID of Target Chain>  (1) 


>  <UniProt (TrEMBL) Secondary ID(s) of Target Chain>  (1) 


>  <UniProt (TrEMBL) Alternative ID(s) of Target Chain>  (1) 


$$$$
