
     RDKit          2D

 34 38  0  0  0  0  0  0  0  0999 V2000
    3.0472   -9.9304    0.0000 N   0  0  0  0  0  0  0  0  0  0  0  0
    3.7109   -9.4420    0.0000 C   0  0  0  0  0  0  0  0  0  0  0  0
    2.6339   -8.6573    0.0000 N   0  0  0  0  0  0  0  0  0  0  0  0
    2.3793   -9.4420    0.0000 C   0  0  0  0  0  0  0  0  0  0  0  0
    3.4604   -8.6573    0.0000 C   0  0  0  0  0  0  0  0  0  0  0  0
    5.0090  -13.5744    0.0000 C   0  0  0  0  0  0  0  0  0  0  0  0
    3.6733  -13.6788    0.0000 N   0  0  0  0  0  0  0  0  0  0  0  0
    4.2994  -13.1404    0.0000 N   0  0  0  0  0  0  0  0  0  0  0  0
    3.9864  -14.4427    0.0000 N   0  0  0  0  0  0  0  0  0  0  0  0
    4.5206   -9.6173    0.0000 N   0  0  0  0  0  0  0  0  0  0  0  0
    5.7646  -13.2405    0.0000 C   0  0  0  0  0  0  0  0  0  0  0  0
    4.8129  -14.3801    0.0000 N   0  0  0  0  0  0  0  0  0  0  0  0
    5.8522  -12.4266    0.0000 C   0  0  0  0  0  0  0  0  0  0  0  0
    4.0114   -8.0437    0.0000 C   0  0  0  0  0  0  0  0  0  0  0  0
    3.0472  -10.7569    0.0000 C   0  0  0  0  0  0  0  0  0  0  0  0
    6.4283  -13.7289    0.0000 C   0  0  0  0  0  0  0  0  0  0  0  0
    5.1885  -11.9382    0.0000 C   0  0  0  0  0  0  0  0  0  0  0  0
    5.0758   -9.0037    0.0000 C   0  0  0  0  0  0  0  0  0  0  0  0
    6.6119  -12.0885    0.0000 C   0  0  0  0  0  0  0  0  0  0  0  0
    4.8129   -8.2148    0.0000 C   0  0  0  0  0  0  0  0  0  0  0  0
    5.2762  -11.1117    0.0000 C   0  0  0  0  0  0  0  0  0  0  0  0
    4.4247  -12.2763    0.0000 C   0  0  0  0  0  0  0  0  0  0  0  0
    3.8486  -10.9697    0.0000 C   0  0  0  0  0  0  0  0  0  0  0  0
    7.1921  -13.3908    0.0000 C   0  0  0  0  0  0  0  0  0  0  0  0
    7.2798  -12.5726    0.0000 C   0  0  0  0  0  0  0  0  0  0  0  0
    1.5946   -9.6967    0.0000 C   0  0  0  0  0  0  0  0  0  0  0  0
    3.7610  -11.7879    0.0000 C   0  0  0  0  0  0  0  0  0  0  0  0
    4.6083  -10.6316    0.0000 C   0  0  0  0  0  0  0  0  0  0  0  0
    3.7568   -7.2548    0.0000 C   0  0  0  0  0  0  0  0  0  0  0  0
    5.8773   -9.1707    0.0000 C   0  0  0  0  0  0  0  0  0  0  0  0
    8.0312  -12.2387    0.0000 C   0  0  0  0  0  0  0  0  0  0  0  0
    0.9810   -9.1457    0.0000 C   0  0  0  0  0  0  0  0  0  0  0  0
    8.7032  -12.7271    0.0000 C   0  0  0  0  0  0  0  0  0  0  0  0
    9.4587  -12.3890    0.0000 C   0  0  0  0  0  0  0  0  0  0  0  0
  2  1  1  0
  3  4  2  0
  4  1  1  0
  5  2  2  0
  6 11  1  0
  7  8  1  0
  8  6  1  0
  9 12  1  0
 10  2  1  0
 11 13  1  0
 12  6  2  0
 13 17  1  0
 14  5  1  0
 15  1  1  0
 16 11  2  0
 17 21  2  0
 18 10  2  0
 19 13  2  0
 20 18  1  0
 21 28  1  0
 22 27  2  0
 23 15  1  0
 24 25  2  0
 25 19  1  0
 26  4  1  0
 27 23  1  0
 28 23  2  0
 29 14  1  0
 30 18  1  0
 31 25  1  0
 32 26  1  0
 33 31  1  0
 34 33  1  0
  5  3  1  0
 22 17  1  0
 20 14  2  0
 16 24  1  0
  7  9  2  0
M  END
>  <From>  (1) 
www.bindingDB.org

>  <BindingDB Reactant_set_id>  (1) 
50045304

>  <Ligand InChI>  (1) 
InChI=1S/C27H29N7/c1-5-7-19-10-13-22(26-30-32-33-31-26)23(15-19)21-11-8-20(9-12-21)16-34-24(6-2)29-25-17(3)14-18(4)28-27(25)34/h8-15H,5-7,16H2,1-4H3,(H,30,31,32,33)

>  <Ligand InChI Key>  (1) 
WJLNXPKTAOOQCU-UHFFFAOYSA-N

>  <BindingDB MonomerID>  (1) 
50049214

>  <BindingDB Ligand Name>  (1) 
2-Ethyl-5,7-dimethyl-3-[5'-propyl-2'-(1H-tetrazol-5-yl)-biphenyl-4-ylmethyl]-3H-imidazo[4,5-b]pyridine::CHEMBL158795

>  <Target Name>  (1) 
Type-1 angiotensin II receptor

>  <Target Source Organism According to Curator or DataSource>  (1) 
Oryctolagus cuniculus

>  <Ki (nM)>  (1) 


>  <IC50 (nM)>  (1) 
 0.300000

>  <Kd (nM)>  (1) 


>  <EC50 (nM)>  (1) 


>  <kon (M-1-s-1)>  (1) 


>  <koff (s-1)>  (1) 


>  <pH>  (1) 


>  <Temp C>  (1) 


>  <Curation/DataSource>  (1) 
ChEMBL

>  <Article DOI>  (1) 
10.1021/jm9504722

>  <BindingDB Entry DOI>  (1) 
10.7270/Q29P3299

>  <PMID>  (1) 
8576904

>  <PubChem AID>  (1) 


>  <Patent Number>  (1) 


>  <Authors>  (1) 
Wexler, RR; Greenlee, WJ; Irvin, JD; Goldberg, MR; Prendergast, K; Smith, RD; Timmermans, PB

>  <Institution>  (1) 
DuPont Pharmaceuticals Company

>  <Link to Ligand in BindingDB>  (1) 
http://www.bindingdb.org/bind/chemsearch/marvin/MolStructure.jsp?monomerid=50049214

>  <Link to Ligand-Target Pair in BindingDB>  (1) 
http://www.bindingdb.org/jsp/dbsearch/PrimarySearch_ki.jsp?energyterm=kJ/mole&tag=r21&monomerid=50049214&enzyme=Type-1+angiotensin+II+receptor&column=ki&startPg=0&Increment=50&submit=Search

>  <Ligand HET ID in PDB>  (1) 


>  <PDB ID(s) for Ligand-Target Complex>  (1) 


>  <PubChem CID of Ligand>  (1) 
44372744

>  <PubChem SID of Ligand>  (1) 
103979568

>  <ChEBI ID of Ligand>  (1) 


>  <ChEMBL ID of Ligand>  (1) 
CHEMBL158795

>  <DrugBank ID of Ligand>  (1) 


>  <IUPHAR_GRAC ID of Ligand>  (1) 


>  <KEGG ID of Ligand>  (1) 


>  <ZINC ID of Ligand>  (1) 
ZINC27729731

>  <Number of Protein Chains in Target (bigger than 1 implies a multichain complex)>  (1) 
1

>  <BindingDB Target Chain Sequence>  (1) 
MMLNSSTEDGIKRIQDDCPKAGRHNYIFVMIPTLYSIIFVVGIFGNSLAVIVIYFYMKLKTVASVFLLNLALADLCFLLTLPLWAVYTAMEYRWPFGNYLCKIASASVSFNLYASVFLLTCLSIDRYLAIVHPMKSRLRRTMLVAKVTCIIIWLLAGLASLPAIIHRNVFFIENTNITVCAFHYESQNSTLPIGLGLTKNILGFLFPFLIILTSYTLIWKALKKAYEIQKNKPRNDDIFKIIMAIVLFFFFSWVPHQIFTFLDVLIQLGVIHDCRIADIVDTAMPITICIAYFNNCLNPLFYGFLGKKFKKYFLQLLKYIPPKAKSHSNLSTKMSTLSYRPSDNVSSSSKKPVPCFEVE

>  <PDB ID(s) of Target Chain>  (1) 
6DO1,6OS0,6OS1,6OS2

>  <UniProt (SwissProt) Recommended Name of Target Chain>  (1) 
Type-1 angiotensin II receptor

>  <UniProt (SwissProt) Entry Name of Target Chain>  (1) 
AGTR1_RABIT

>  <UniProt (SwissProt) Primary ID of Target Chain>  (1) 
P34976

>  <UniProt (SwissProt) Secondary ID(s) of Target Chain>  (1) 


>  <UniProt (SwissProt) Alternative ID(s) of Target Chain>  (1) 


>  <UniProt (TrEMBL) Submitted Name of Target Chain>  (1) 


>  <UniProt (TrEMBL) Entry Name of Target Chain>  (1) 


>  <UniProt (TrEMBL) Primary ID of Target Chain>  (1) 


>  <UniProt (TrEMBL) Secondary ID(s) of Target Chain>  (1) 


>  <UniProt (TrEMBL) Alternative ID(s) of Target Chain>  (1) 


$$$$
