 
     RDKit          2D

 30 33  0  0  0  0  0  0  0  0999 V2000
   33.9368  -14.7748    0.0000 C   0  0  0  0  0  0  0  0  0  0  0  0
   33.1118  -14.7706    0.0000 C   0  0  0  0  0  0  0  0  0  0  0  0
   34.1876  -15.5607    0.0000 C   0  0  0  0  0  0  0  0  0  0  0  0
   36.2607  -13.7874    0.0000 C   0  0  0  0  0  0  0  0  0  0  0  0
   36.2595  -14.6147    0.0000 C   0  0  0  0  0  0  0  0  0  0  0  0
   36.9744  -15.0276    0.0000 C   0  0  0  0  0  0  0  0  0  0  0  0
   37.6907  -14.6142    0.0000 C   0  0  0  0  0  0  0  0  0  0  0  0
   37.6879  -13.7837    0.0000 C   0  0  0  0  0  0  0  0  0  0  0  0
   36.9726  -13.3745    0.0000 C   0  0  0  0  0  0  0  0  0  0  0  0
   38.4024  -15.0249    0.0000 C   0  0  0  0  0  0  0  0  0  0  0  0
   38.4023  -15.8510    0.0000 C   0  0  0  0  0  0  0  0  0  0  0  0
   39.1165  -16.2623    0.0000 C   0  0  0  0  0  0  0  0  0  0  0  0
   39.8314  -15.8485    0.0000 C   0  0  0  0  0  0  0  0  0  0  0  0
   39.8273  -15.0193    0.0000 C   0  0  0  0  0  0  0  0  0  0  0  0
   39.1126  -14.6117    0.0000 C   0  0  0  0  0  0  0  0  0  0  0  0
   39.1084  -13.7881    0.0000 C   0  0  0  0  0  0  0  0  0  0  0  0
   39.7737  -13.3002    0.0000 N   0  0  0  0  0  0  0  0  0  0  0  0
   39.5154  -12.5167    0.0000 N   0  0  0  0  0  0  0  0  0  0  0  0
   38.6904  -12.5203    0.0000 N   0  0  0  0  0  0  0  0  0  0  0  0
   38.4389  -13.3060    0.0000 N   0  0  0  0  0  0  0  0  0  0  0  0
   35.5461  -13.3750    0.0000 C   0  0  0  0  0  0  0  0  0  0  0  0
   34.8317  -13.7877    0.0000 N   0  0  0  0  0  0  0  0  0  0  0  0
   34.0786  -13.4478    0.0000 C   0  0  0  0  0  0  0  0  0  0  0  0
   33.5267  -14.0611    0.0000 N   0  0  0  0  0  0  0  0  0  0  0  0
   34.7462  -14.6037    0.0000 C   0  0  0  0  0  0  0  0  0  0  0  0
   35.3595  -15.1555    0.0000 O   0  0  0  0  0  0  0  0  0  0  0  0
   33.9089  -12.6405    0.0000 C   0  0  0  0  0  0  0  0  0  0  0  0
   33.1249  -12.3838    0.0000 C   0  0  0  0  0  0  0  0  0  0  0  0
   32.9553  -11.5763    0.0000 C   0  0  0  0  0  0  0  0  0  0  0  0
   32.1713  -11.3196    0.0000 C   0  0  0  0  0  0  0  0  0  0  0  0
  1  2  1  0
  3  1  1  0
  4  5  2  0
  5  6  1  0
  6  7  2  0
  7  8  1  0
  8  9  2  0
  9  4  1  0
 10 11  2  0
 11 12  1  0
 12 13  2  0
 13 14  1  0
 14 15  2  0
 15 10  1  0
  7 10  1  0
 16 17  1  0
 17 18  1  0
 18 19  2  0
 19 20  1  0
 20 16  2  0
 15 16  1  0
  4 21  1  0
 21 22  1  0
 22 23  1  0
 23 24  2  0
 24  1  1  0
  1 25  1  0
 25 22  1  0
 25 26  2  0
 23 27  1  0
 27 28  1  0
 28 29  1  0
 29 30  1  0
M  END
>  <From>  (1) 
www.bindingDB.org

>  <BindingDB Reactant_set_id>  (1) 
51428827

>  <Ligand InChI>  (1) 
InChI=1S/C23H26N6O/c1-4-5-10-20-24-23(2,3)22(30)29(20)15-16-11-13-17(14-12-16)18-8-6-7-9-19(18)21-25-27-28-26-21/h6-9,11-14H,4-5,10,15H2,1-3H3,(H,25,26,27,28)

>  <Ligand InChI Key>  (1) 
DTQSQYVSPRWGGI-UHFFFAOYSA-N

>  <BindingDB MonomerID>  (1) 
50577229

>  <BindingDB Ligand Name>  (1) 
CHEMBL4877651

>  <Target Name>  (1) 
Type-1 angiotensin II receptor

>  <Target Source Organism According to Curator or DataSource>  (1) 
Homo sapiens

>  <Ki (nM)>  (1) 


>  <IC50 (nM)>  (1) 
 32

>  <Kd (nM)>  (1) 


>  <EC50 (nM)>  (1) 


>  <kon (M-1-s-1)>  (1) 


>  <koff (s-1)>  (1) 


>  <pH>  (1) 


>  <Temp C>  (1) 


>  <Curation/DataSource>  (1) 
ChEMBL

>  <Article DOI>  (1) 
10.1021/acsmedchemlett.1c00240

>  <BindingDB Entry DOI>  (1) 
10.7270/Q2FJ2MMF

>  <PMID>  (1) 
34413955

>  <PubChem AID>  (1) 


>  <Patent Number>  (1) 


>  <Authors>  (1) 
Hernandez-Olmos, V; Heering, J; Bischoff-Kont, I; Kaps, A; Rajkumar, R; Liu, T; Fürst, R; Steinhilber, D; Proschak, E

>  <Institution>  (1) 
Fraunhofer Institute for Translational Medicine and Phamacology ITMP

>  <Link to Ligand in BindingDB>  (1) 
http://www.bindingdb.org/bind/chemsearch/marvin/MolStructure.jsp?monomerid=50577229

>  <Link to Ligand-Target Pair in BindingDB>  (1) 
http://www.bindingdb.org/jsp/dbsearch/PrimarySearch_ki.jsp?energyterm=kJ/mole&tag=r21&monomerid=50577229&enzyme=Type-1+angiotensin+II+receptor&column=ki&startPg=0&Increment=50&submit=Search

>  <Ligand HET ID in PDB>  (1) 


>  <PDB ID(s) for Ligand-Target Complex>  (1) 


>  <PubChem CID of Ligand>  (1) 
67903275

>  <PubChem SID of Ligand>  (1) 
471053352

>  <ChEBI ID of Ligand>  (1) 


>  <ChEMBL ID of Ligand>  (1) 


>  <DrugBank ID of Ligand>  (1) 


>  <IUPHAR_GRAC ID of Ligand>  (1) 


>  <KEGG ID of Ligand>  (1) 


>  <ZINC ID of Ligand>  (1) 


>  <Number of Protein Chains in Target (bigger than 1 implies a multichain complex)>  (1) 
1

>  <BindingDB Target Chain Sequence>  (1) 
MILNSSTEDGIKRIQDDCPKAGRHNYIFVMIPTLYSIIFVVGIFGNSLVVIVIYFYMKLKTVASVFLLNLALADLCFLLTLPLWAVYTAMEYRWPFGNYLCKIASASVSFNLYASVFLLTCLSIDRYLAIVHPMKSRLRRTMLVAKVTCIIIWLLAGLASLPAIIHRNVFFIENTNITVCAFHYESQNSTLPIGLGLTKNILGFLFPFLIILTSYTLIWKALKKAYEIQKNKPRNDDIFKIIMAIVLFFFFSWIPHQIFTFLDVLIQLGIIRDCRIADIVDTAMPITICIAYFNNCLNPLFYGFLGKKFKRYFLQLLKYIPPKAKSHSNLSTKMSTLSYRPSDNVSSSTKKPAPCFEVE

>  <PDB ID(s) of Target Chain>  (1) 
6DO1,6OS0,6OS1,6OS2

>  <UniProt (SwissProt) Recommended Name of Target Chain>  (1) 
Type-1 angiotensin II receptor

>  <UniProt (SwissProt) Entry Name of Target Chain>  (1) 
AGTR1_HUMAN

>  <UniProt (SwissProt) Primary ID of Target Chain>  (1) 
P30556

>  <UniProt (SwissProt) Secondary ID(s) of Target Chain>  (1) 
Q13725 Q8TBK4

>  <UniProt (SwissProt) Alternative ID(s) of Target Chain>  (1) 


>  <UniProt (TrEMBL) Submitted Name of Target Chain>  (1) 


>  <UniProt (TrEMBL) Entry Name of Target Chain>  (1) 


>  <UniProt (TrEMBL) Primary ID of Target Chain>  (1) 


>  <UniProt (TrEMBL) Secondary ID(s) of Target Chain>  (1) 


>  <UniProt (TrEMBL) Alternative ID(s) of Target Chain>  (1) 


$$$$
