
     RDKit          2D

 29 32  0  0  0  0  0  0  0  0999 V2000
    3.7429   -3.2017    0.0000 N   0  0  0  0  0  0  0  0  0  0  0  0
    3.4865   -2.4098    0.0000 C   0  0  0  0  0  0  0  0  0  0  0  0
    2.3984   -3.2017    0.0000 N   0  0  0  0  0  0  0  0  0  0  0  0
    3.0763   -3.6802    0.0000 C   0  0  0  0  0  0  0  0  0  0  0  0
    2.6548   -2.4155    0.0000 C   0  0  0  0  0  0  0  0  0  0  0  0
    8.0326   -4.4835    0.0000 C   0  0  0  0  0  0  0  0  0  0  0  0
    7.6225   -3.7770    0.0000 C   0  0  0  0  0  0  0  0  0  0  0  0
    7.6225   -5.2127    0.0000 C   0  0  0  0  0  0  0  0  0  0  0  0
    4.3239   -3.7770    0.0000 C   0  0  0  0  0  0  0  0  0  0  0  0
    6.7908   -3.7770    0.0000 C   0  0  0  0  0  0  0  0  0  0  0  0
    3.9708   -1.7433    0.0000 O   0  0  0  0  0  0  0  0  0  0  0  0
    8.0326   -5.9191    0.0000 O   0  0  0  0  0  0  0  0  0  0  0  0
    6.3806   -4.4949    0.0000 C   0  0  0  0  0  0  0  0  0  0  0  0
    6.3748   -3.0592    0.0000 C   0  0  0  0  0  0  0  0  0  0  0  0
    5.1500   -3.7770    0.0000 C   0  0  0  0  0  0  0  0  0  0  0  0
    6.7908   -5.2127    0.0000 O   0  0  0  0  0  0  0  0  0  0  0  0
    3.0650   -4.5006    0.0000 C   0  0  0  0  0  0  0  0  0  0  0  0
    5.5545   -4.4949    0.0000 C   0  0  0  0  0  0  0  0  0  0  0  0
    5.5545   -3.0592    0.0000 C   0  0  0  0  0  0  0  0  0  0  0  0
    2.9112   -1.6294    0.0000 C   0  0  0  0  0  0  0  0  0  0  0  0
    1.8344   -2.4155    0.0000 C   0  0  0  0  0  0  0  0  0  0  0  0
    8.8587   -4.4835    0.0000 C   0  0  0  0  0  0  0  0  0  0  0  0
    8.0213   -3.0592    0.0000 C   0  0  0  0  0  0  0  0  0  0  0  0
    2.3643   -4.9108    0.0000 C   0  0  0  0  0  0  0  0  0  0  0  0
    2.2560   -1.1508    0.0000 C   0  0  0  0  0  0  0  0  0  0  0  0
    1.5894   -1.6294    0.0000 C   0  0  0  0  0  0  0  0  0  0  0  0
    9.2689   -3.7657    0.0000 C   0  0  0  0  0  0  0  0  0  0  0  0
    8.8530   -3.0479    0.0000 C   0  0  0  0  0  0  0  0  0  0  0  0
    2.3643   -5.7311    0.0000 C   0  0  0  0  0  0  0  0  0  0  0  0
  2  1  1  0
  3  4  2  0
  4  1  1  0
  5  2  1  0
  6  7  2  0
  7 10  1  0
  8  6  1  0
  9  1  1  0
 10 14  2  0
 11  2  2  0
 12  8  2  0
 13 18  2  0
 14 19  1  0
 15  9  1  0
 16  8  1  0
 17  4  1  0
 18 15  1  0
 19 15  2  0
 20  5  1  0
 21  5  1  0
 22  6  1  0
 23  7  1  0
 24 17  1  0
 25 20  1  0
 26 21  1  0
 27 28  1  0
 28 23  2  0
 29 24  1  0
  3  5  1  0
 13 10  1  0
 25 26  1  0
 22 27  2  0
M  END
>  <From>  (1) 
www.bindingDB.org

>  <BindingDB Reactant_set_id>  (1) 
50067220

>  <Ligand InChI>  (1) 
InChI=1S/C24H26N2O3/c1-2-7-21-25-24(14-5-6-15-24)23(29)26(21)16-17-10-12-18(13-11-17)19-8-3-4-9-20(19)22(27)28/h3-4,8-13H,2,5-7,14-16H2,1H3,(H,27,28)

>  <Ligand InChI Key>  (1) 
OMZZLVARBWAOMW-UHFFFAOYSA-N

>  <BindingDB MonomerID>  (1) 
50042249

>  <BindingDB Ligand Name>  (1) 
4'-(4-Oxo-2-propyl-1,3-diaza-spiro[4.4]non-1-en-3-ylmethyl)-biphenyl-2-carboxylic acid::CHEMBL419583

>  <Target Name>  (1) 
Type-1 angiotensin II receptor B

>  <Target Source Organism According to Curator or DataSource>  (1) 
Rattus

>  <Ki (nM)>  (1) 


>  <IC50 (nM)>  (1) 
 27

>  <Kd (nM)>  (1) 


>  <EC50 (nM)>  (1) 


>  <kon (M-1-s-1)>  (1) 


>  <koff (s-1)>  (1) 


>  <pH>  (1) 


>  <Temp C>  (1) 


>  <Curation/DataSource>  (1) 
ChEMBL

>  <Article DOI>  (1) 
10.1021/jm00074a018

>  <BindingDB Entry DOI>  (1) 
10.7270/Q22Z14M0

>  <PMID>  (1) 
8230127

>  <PubChem AID>  (1) 


>  <Patent Number>  (1) 


>  <Authors>  (1) 
Bernhart, CA; Perreaut, PM; Ferrari, BP; Muneaux, YA; Assens, JL; Clement, J; Haudricourt, F; Muneaux, CF; Taillades, JE; Vignal, MA

>  <Institution>  (1) 
Sanofi Recherche

>  <Link to Ligand in BindingDB>  (1) 
http://www.bindingdb.org/bind/chemsearch/marvin/MolStructure.jsp?monomerid=50042249

>  <Link to Ligand-Target Pair in BindingDB>  (1) 
http://www.bindingdb.org/jsp/dbsearch/PrimarySearch_ki.jsp?energyterm=kJ/mole&tag=r21&monomerid=50042249&enzyme=Type-1+angiotensin+II+receptor+B&column=ki&startPg=0&Increment=50&submit=Search

>  <Ligand HET ID in PDB>  (1) 


>  <PDB ID(s) for Ligand-Target Complex>  (1) 


>  <PubChem CID of Ligand>  (1) 
44341796

>  <PubChem SID of Ligand>  (1) 
103973857

>  <ChEBI ID of Ligand>  (1) 


>  <ChEMBL ID of Ligand>  (1) 
CHEMBL419583

>  <DrugBank ID of Ligand>  (1) 


>  <IUPHAR_GRAC ID of Ligand>  (1) 


>  <KEGG ID of Ligand>  (1) 


>  <ZINC ID of Ligand>  (1) 
ZINC13833585

>  <Number of Protein Chains in Target (bigger than 1 implies a multichain complex)>  (1) 
1

>  <BindingDB Target Chain Sequence>  (1) 
MTLNSSTEDGIKRIQDDCPKAGRHNYIFVMIPTLYSIIFVVGIFGNSLVVIVIYFYMKLKTVASVFLLNLALADLCFLLTLPLWAVYTAMEYRWPFGNHLCKIASASVSFNLYASVFLLTCLSIDRYLAIVHPMKSRLRRTMLVAKVTCIIIWLMAGLASLPAVIYRNVYFIENTNITVCAFHYESQNSTLPIGLGLTKNILGFVFPFLIILTSYTLIWKALKKAYKIQKNTPRNDDIFRIIMAIVLFFFFSWVPHQIFTFLDVLIQLGIIRDCEIADIVDTAMPITICIAYFNNCLNPLFYGFLGKKFKKYFLQLLKYIPPTAKSHAGLSTKMSTLSYRPSDNMSSSAKKSASFFEVE

>  <PDB ID(s) of Target Chain>  (1) 


>  <UniProt (SwissProt) Recommended Name of Target Chain>  (1) 
Type-1 angiotensin II receptor B

>  <UniProt (SwissProt) Entry Name of Target Chain>  (1) 
AGTRB_RAT

>  <UniProt (SwissProt) Primary ID of Target Chain>  (1) 
P29089

>  <UniProt (SwissProt) Secondary ID(s) of Target Chain>  (1) 


>  <UniProt (SwissProt) Alternative ID(s) of Target Chain>  (1) 


>  <UniProt (TrEMBL) Submitted Name of Target Chain>  (1) 


>  <UniProt (TrEMBL) Entry Name of Target Chain>  (1) 


>  <UniProt (TrEMBL) Primary ID of Target Chain>  (1) 


>  <UniProt (TrEMBL) Secondary ID(s) of Target Chain>  (1) 


>  <UniProt (TrEMBL) Alternative ID(s) of Target Chain>  (1) 


$$$$
