
     RDKit          2D

 34 39  0  0  0  0  0  0  0  0999 V2000
    5.0843  -10.0321    0.0000 C   0  0  0  0  0  0  0  0  0  0  0  0
    5.0865   -9.2087    0.0000 C   0  0  0  0  0  0  0  0  0  0  0  0
    5.7907  -10.4585    0.0000 C   0  0  0  0  0  0  0  0  0  0  0  0
    5.8083   -8.8141    0.0000 C   0  0  0  0  0  0  0  0  0  0  0  0
    5.8147   -7.9835    0.0000 C   0  0  0  0  0  0  0  0  0  0  0  0
    6.5192   -9.2330    0.0000 C   0  0  0  0  0  0  0  0  0  0  0  0
    6.5406   -7.5816    0.0000 C   0  0  0  0  0  0  0  0  0  0  0  0
    4.3584  -10.4340    0.0000 C   0  0  0  0  0  0  0  0  0  0  0  0
    4.3798   -8.7826    0.0000 C   0  0  0  0  0  0  0  0  0  0  0  0
    3.6475  -10.0150    0.0000 C   0  0  0  0  0  0  0  0  0  0  0  0
    3.6647   -9.1907    0.0000 C   0  0  0  0  0  0  0  0  0  0  0  0
    7.2474   -8.0078    0.0000 C   0  0  0  0  0  0  0  0  0  0  0  0
    7.2359   -8.8242    0.0000 C   0  0  0  0  0  0  0  0  0  0  0  0
    8.0088   -9.0874    0.0000 C   0  0  0  0  0  0  0  0  0  0  0  0
    8.4981   -8.4336    0.0000 C   0  0  0  0  0  0  0  0  0  0  0  0
    8.0282   -7.7660    0.0000 C   0  0  0  0  0  0  0  0  0  0  0  0
    8.2924   -6.9843    0.0000 N   0  0  0  0  0  0  0  0  0  0  0  0
    8.3097   -5.6534    0.0000 N   0  0  0  0  0  0  0  0  0  0  0  0
    9.0777   -6.7371    0.0000 C   0  0  0  0  0  0  0  0  0  0  0  0
    7.8186   -6.3119    0.0000 C   0  0  0  0  0  0  0  0  0  0  0  0
    9.0962   -5.9201    0.0000 C   0  0  0  0  0  0  0  0  0  0  0  0
   10.5016   -6.7611    0.0000 C   0  0  0  0  0  0  0  0  0  0  0  0
    9.7837   -7.1643    0.0000 N   0  0  0  0  0  0  0  0  0  0  0  0
    9.8034   -5.5104    0.0000 C   0  0  0  0  0  0  0  0  0  0  0  0
   10.5135   -5.9304    0.0000 C   0  0  0  0  0  0  0  0  0  0  0  0
    6.9952   -6.3042    0.0000 C   0  0  0  0  0  0  0  0  0  0  0  0
    9.8110   -4.6870    0.0000 C   0  0  0  0  0  0  0  0  0  0  0  0
    6.5983   -5.5756    0.0000 C   0  0  0  0  0  0  0  0  0  0  0  0
    5.7769  -11.2829    0.0000 N   0  0  0  0  0  0  0  0  0  0  0  0
    6.5561  -11.5545    0.0000 N   0  0  0  0  0  0  0  0  0  0  0  0
    7.0553  -10.8975    0.0000 N   0  0  0  0  0  0  0  0  0  0  0  0
    6.5848  -10.2196    0.0000 N   0  0  0  0  0  0  0  0  0  0  0  0
   11.2107   -7.1829    0.0000 C   0  0  0  0  0  0  0  0  0  0  0  0
   11.2332   -5.5269    0.0000 C   0  0  0  0  0  0  0  0  0  0  0  0
 16 12  1  0
  5  7  2  0
  6 13  1  0
  7 12  1  0
  8  1  2  0
  9  2  2  0
 10 11  2  0
 11  9  1  0
  6  4  2  0
  8 10  1  0
 12 13  2  0
  1  2  1  0
 17 19  1  0
 18 21  1  0
 19 23  2  0
 20 17  1  0
 21 24  2  0
 23 22  1  0
 24 25  1  0
 25 22  2  0
 26 20  1  0
 27 24  1  0
 28 26  1  0
 19 21  1  0
 18 20  2  0
 16 17  1  1
 31 32  1  0
  2  4  1  0
 29 30  1  0
  3  1  1  0
  4  5  1  0
 13 14  1  0
  3 29  1  0
 30 31  2  0
 32  3  2  0
 14 15  1  0
 22 33  1  0
 16 15  1  0
 25 34  1  0
M  END
>  <From>  (1) 
www.bindingDB.org

>  <BindingDB Reactant_set_id>  (1) 
50647680

>  <Ligand InChI>  (1) 
InChI=1S/C27H27N7/c1-5-24-29-25-16(3)15(2)17(4)28-27(25)34(24)23-13-11-19-14-18(10-12-21(19)23)20-8-6-7-9-22(20)26-30-32-33-31-26/h6-10,12,14,23H,5,11,13H2,1-4H3,(H,30,31,32,33)/t23-/m0/s1

>  <Ligand InChI Key>  (1) 
PQLMUUHTNDBXNG-QHCPKHFHSA-N

>  <BindingDB MonomerID>  (1) 
50347575

>  <BindingDB Ligand Name>  (1) 
CHEMBL1801736

>  <Target Name>  (1) 
Type-1 angiotensin II receptor

>  <Target Source Organism According to Curator or DataSource>  (1) 
Homo sapiens

>  <Ki (nM)>  (1) 


>  <IC50 (nM)>  (1) 
 202

>  <Kd (nM)>  (1) 


>  <EC50 (nM)>  (1) 


>  <kon (M-1-s-1)>  (1) 


>  <koff (s-1)>  (1) 


>  <pH>  (1) 


>  <Temp C>  (1) 


>  <Curation/DataSource>  (1) 
ChEMBL

>  <Article DOI>  (1) 
10.1021/jm200409s

>  <BindingDB Entry DOI>  (1) 
10.7270/Q2SB463J

>  <PMID>  (1) 
21557540

>  <PubChem AID>  (1) 


>  <Patent Number>  (1) 


>  <Authors>  (1) 
Casimiro-Garcia, A; Filzen, GF; Flynn, D; Bigge, CF; Chen, J; Davis, JA; Dudley, DA; Edmunds, JJ; Esmaeil, N; Geyer, A; Heemstra, RJ; Jalaie, M; Ohren, JF; Ostroski, R; Ellis, T; Schaum, RP; Stoner, C

>  <Institution>  (1) 
Pfizer Inc

>  <Link to Ligand in BindingDB>  (1) 
http://www.bindingdb.org/bind/chemsearch/marvin/MolStructure.jsp?monomerid=50347575

>  <Link to Ligand-Target Pair in BindingDB>  (1) 
http://www.bindingdb.org/jsp/dbsearch/PrimarySearch_ki.jsp?energyterm=kJ/mole&tag=r21&monomerid=50347575&enzyme=Type-1+angiotensin+II+receptor&column=ki&startPg=0&Increment=50&submit=Search

>  <Ligand HET ID in PDB>  (1) 


>  <PDB ID(s) for Ligand-Target Complex>  (1) 


>  <PubChem CID of Ligand>  (1) 
53309272

>  <PubChem SID of Ligand>  (1) 
136354261

>  <ChEBI ID of Ligand>  (1) 


>  <ChEMBL ID of Ligand>  (1) 
CHEMBL1801736

>  <DrugBank ID of Ligand>  (1) 


>  <IUPHAR_GRAC ID of Ligand>  (1) 


>  <KEGG ID of Ligand>  (1) 


>  <ZINC ID of Ligand>  (1) 
ZINC72109927

>  <Number of Protein Chains in Target (bigger than 1 implies a multichain complex)>  (1) 
1

>  <BindingDB Target Chain Sequence>  (1) 
MILNSSTEDGIKRIQDDCPKAGRHNYIFVMIPTLYSIIFVVGIFGNSLVVIVIYFYMKLKTVASVFLLNLALADLCFLLTLPLWAVYTAMEYRWPFGNYLCKIASASVSFNLYASVFLLTCLSIDRYLAIVHPMKSRLRRTMLVAKVTCIIIWLLAGLASLPAIIHRNVFFIENTNITVCAFHYESQNSTLPIGLGLTKNILGFLFPFLIILTSYTLIWKALKKAYEIQKNKPRNDDIFKIIMAIVLFFFFSWIPHQIFTFLDVLIQLGIIRDCRIADIVDTAMPITICIAYFNNCLNPLFYGFLGKKFKRYFLQLLKYIPPKAKSHSNLSTKMSTLSYRPSDNVSSSTKKPAPCFEVE

>  <PDB ID(s) of Target Chain>  (1) 
6DO1,6OS0,6OS1,6OS2

>  <UniProt (SwissProt) Recommended Name of Target Chain>  (1) 
Type-1 angiotensin II receptor

>  <UniProt (SwissProt) Entry Name of Target Chain>  (1) 
AGTR1_HUMAN

>  <UniProt (SwissProt) Primary ID of Target Chain>  (1) 
P30556

>  <UniProt (SwissProt) Secondary ID(s) of Target Chain>  (1) 
Q13725 Q8TBK4

>  <UniProt (SwissProt) Alternative ID(s) of Target Chain>  (1) 


>  <UniProt (TrEMBL) Submitted Name of Target Chain>  (1) 


>  <UniProt (TrEMBL) Entry Name of Target Chain>  (1) 


>  <UniProt (TrEMBL) Primary ID of Target Chain>  (1) 


>  <UniProt (TrEMBL) Secondary ID(s) of Target Chain>  (1) 


>  <UniProt (TrEMBL) Alternative ID(s) of Target Chain>  (1) 


$$$$
