
     RDKit          2D

 32 36  0  0  0  0  0  0  0  0999 V2000
    7.9938   -6.8033    0.0000 N   0  0  0  0  0  0  0  0  0  0  0  0
    8.7070   -6.3897    0.0000 C   0  0  0  0  0  0  0  0  0  0  0  0
    8.7037   -5.5581    0.0000 C   0  0  0  0  0  0  0  0  0  0  0  0
    7.9917   -5.1494    0.0000 C   0  0  0  0  0  0  0  0  0  0  0  0
    7.2776   -6.3903    0.0000 C   0  0  0  0  0  0  0  0  0  0  0  0
    7.2745   -5.5654    0.0000 C   0  0  0  0  0  0  0  0  0  0  0  0
    6.4891   -5.3135    0.0000 N   0  0  0  0  0  0  0  0  0  0  0  0
    6.0067   -5.9827    0.0000 C   0  0  0  0  0  0  0  0  0  0  0  0
    6.4941   -6.6481    0.0000 N   0  0  0  0  0  0  0  0  0  0  0  0
    5.1816   -5.9858    0.0000 C   0  0  0  0  0  0  0  0  0  0  0  0
    4.7662   -5.2728    0.0000 C   0  0  0  0  0  0  0  0  0  0  0  0
    7.9898   -4.3243    0.0000 C   0  0  0  0  0  0  0  0  0  0  0  0
    9.4229   -6.8002    0.0000 C   0  0  0  0  0  0  0  0  0  0  0  0
    6.4847   -7.4699    0.0000 C   0  0  0  0  0  0  0  0  0  0  0  0
    7.1944   -7.8907    0.0000 C   0  0  0  0  0  0  0  0  0  0  0  0
    7.1811   -8.7139    0.0000 C   0  0  0  0  0  0  0  0  0  0  0  0
    7.8901   -9.1395    0.0000 C   0  0  0  0  0  0  0  0  0  0  0  0
    7.9077   -7.4840    0.0000 C   0  0  0  0  0  0  0  0  0  0  0  0
    8.6172   -7.9009    0.0000 C   0  0  0  0  0  0  0  0  0  0  0  0
    8.6134   -8.7259    0.0000 C   0  0  0  0  0  0  0  0  0  0  0  0
    9.3969   -8.9845    0.0000 N   0  0  0  0  0  0  0  0  0  0  0  0
    9.8849   -8.3194    0.0000 C   0  0  0  0  0  0  0  0  0  0  0  0
    9.4031   -7.6498    0.0000 C   0  0  0  0  0  0  0  0  0  0  0  0
    9.3871   -9.8094    0.0000 C   0  0  0  0  0  0  0  0  0  0  0  0
   10.0969  -10.2304    0.0000 C   0  0  0  0  0  0  0  0  0  0  0  0
   10.0835  -11.0535    0.0000 C   0  0  0  0  0  0  0  0  0  0  0  0
   10.7923  -11.4743    0.0000 C   0  0  0  0  0  0  0  0  0  0  0  0
   11.5127  -11.0702    0.0000 C   0  0  0  0  0  0  0  0  0  0  0  0
   11.5198  -10.2408    0.0000 C   0  0  0  0  0  0  0  0  0  0  0  0
   10.8104   -9.8236    0.0000 C   0  0  0  0  0  0  0  0  0  0  0  0
    8.6678  -10.2136    0.0000 C   0  0  0  0  0  0  0  0  0  0  0  0
    7.9456  -10.6200    0.0000 N   0  0  0  0  0  0  0  0  0  0  0  0
  3  4  2  0
 15 16  2  0
  6  7  1  0
 16 17  1  0
 17 20  2  0
  7  8  2  0
 19 18  2  0
 18 15  1  0
 19 20  1  0
  8  9  1  0
  9  5  1  0
  4  6  1  0
  8 10  1  0
  5  6  2  0
 20 21  1  0
 21 22  1  0
 22 23  1  0
 23 19  1  0
 10 11  1  0
 21 24  1  0
  1  2  2  0
 24 25  1  0
  4 12  1  0
 25 26  2  0
  5  1  1  0
 26 27  1  0
  2 13  1  0
 27 28  2  0
  2  3  1  0
 28 29  1  0
  9 14  1  0
 29 30  2  0
 30 25  1  0
 24 31  1  0
 14 15  1  0
 31 32  3  0
M  END
>  <From>  (1) 
www.bindingDB.org

>  <BindingDB Reactant_set_id>  (1) 
50062166

>  <Ligand InChI>  (1) 
InChI=1S/C27H27N5/c1-4-25-30-26-18(2)14-19(3)29-27(26)32(25)17-20-10-11-23-22(15-20)12-13-31(23)24(16-28)21-8-6-5-7-9-21/h5-11,14-15,24H,4,12-13,17H2,1-3H3

>  <Ligand InChI Key>  (1) 
SVUMTANOKHEFLH-UHFFFAOYSA-N

>  <BindingDB MonomerID>  (1) 
50043446

>  <BindingDB Ligand Name>  (1) 
CHEMBL135792::[5-(2-Ethyl-5,7-dimethyl-3H-imidazo[4,5-b]pyridin-4-ylmethyl)-2,3-dihydro-indol-1-yl]-phenyl-acetonitrile

>  <Target Name>  (1) 
Type-1 angiotensin II receptor

>  <Target Source Organism According to Curator or DataSource>  (1) 
Oryctolagus cuniculus

>  <Ki (nM)>  (1) 


>  <IC50 (nM)>  (1) 
 350

>  <Kd (nM)>  (1) 


>  <EC50 (nM)>  (1) 


>  <kon (M-1-s-1)>  (1) 


>  <koff (s-1)>  (1) 


>  <pH>  (1) 


>  <Temp C>  (1) 


>  <Curation/DataSource>  (1) 
ChEMBL

>  <Article DOI>  (1) 
10.1021/jm00078a013

>  <BindingDB Entry DOI>  (1) 
10.7270/Q26M35X0

>  <PMID>  (1) 
8277505

>  <PubChem AID>  (1) 


>  <Patent Number>  (1) 


>  <Authors>  (1) 
Dhanoa, DS; Bagley, SW; Chang, RS; Lotti, VJ; Chen, TB; Kivlighn, SD; Zingaro, GJ; Siegl, PK; Patchett, AA; Greenlee, WJ

>  <Institution>  (1) 
Merck Research Laboratories

>  <Link to Ligand in BindingDB>  (1) 
http://www.bindingdb.org/bind/chemsearch/marvin/MolStructure.jsp?monomerid=50043446

>  <Link to Ligand-Target Pair in BindingDB>  (1) 
http://www.bindingdb.org/jsp/dbsearch/PrimarySearch_ki.jsp?energyterm=kJ/mole&tag=r21&monomerid=50043446&enzyme=Type-1+angiotensin+II+receptor&column=ki&startPg=0&Increment=50&submit=Search

>  <Ligand HET ID in PDB>  (1) 


>  <PDB ID(s) for Ligand-Target Complex>  (1) 


>  <PubChem CID of Ligand>  (1) 
10364891

>  <PubChem SID of Ligand>  (1) 
103974874

>  <ChEBI ID of Ligand>  (1) 


>  <ChEMBL ID of Ligand>  (1) 
CHEMBL135792

>  <DrugBank ID of Ligand>  (1) 


>  <IUPHAR_GRAC ID of Ligand>  (1) 


>  <KEGG ID of Ligand>  (1) 


>  <ZINC ID of Ligand>  (1) 
ZINC13732421

>  <Number of Protein Chains in Target (bigger than 1 implies a multichain complex)>  (1) 
1

>  <BindingDB Target Chain Sequence>  (1) 
MMLNSSTEDGIKRIQDDCPKAGRHNYIFVMIPTLYSIIFVVGIFGNSLAVIVIYFYMKLKTVASVFLLNLALADLCFLLTLPLWAVYTAMEYRWPFGNYLCKIASASVSFNLYASVFLLTCLSIDRYLAIVHPMKSRLRRTMLVAKVTCIIIWLLAGLASLPAIIHRNVFFIENTNITVCAFHYESQNSTLPIGLGLTKNILGFLFPFLIILTSYTLIWKALKKAYEIQKNKPRNDDIFKIIMAIVLFFFFSWVPHQIFTFLDVLIQLGVIHDCRIADIVDTAMPITICIAYFNNCLNPLFYGFLGKKFKKYFLQLLKYIPPKAKSHSNLSTKMSTLSYRPSDNVSSSSKKPVPCFEVE

>  <PDB ID(s) of Target Chain>  (1) 
6DO1,6OS0,6OS1,6OS2

>  <UniProt (SwissProt) Recommended Name of Target Chain>  (1) 
Type-1 angiotensin II receptor

>  <UniProt (SwissProt) Entry Name of Target Chain>  (1) 
AGTR1_RABIT

>  <UniProt (SwissProt) Primary ID of Target Chain>  (1) 
P34976

>  <UniProt (SwissProt) Secondary ID(s) of Target Chain>  (1) 


>  <UniProt (SwissProt) Alternative ID(s) of Target Chain>  (1) 


>  <UniProt (TrEMBL) Submitted Name of Target Chain>  (1) 


>  <UniProt (TrEMBL) Entry Name of Target Chain>  (1) 


>  <UniProt (TrEMBL) Primary ID of Target Chain>  (1) 


>  <UniProt (TrEMBL) Secondary ID(s) of Target Chain>  (1) 


>  <UniProt (TrEMBL) Alternative ID(s) of Target Chain>  (1) 


$$$$
