
     RDKit          2D

 47 52  0  0  0  0  0  0  0  0999 V2000
   10.9143   -4.0459    0.0000 C   0  0  0  0  0  0  0  0  0  0  0  0
    6.6304   -4.0376    0.0000 N   0  0  0  0  0  0  0  0  0  0  0  0
    5.9122   -3.6200    0.0000 C   0  0  0  0  0  0  0  0  0  0  0  0
    5.1983   -4.0376    0.0000 C   0  0  0  0  0  0  0  0  0  0  0  0
   11.3402   -2.7850    0.0000 N   0  0  0  0  0  0  0  0  0  0  0  0
   10.2504   -3.5574    0.0000 N   0  0  0  0  0  0  0  0  0  0  0  0
   11.5907   -3.5616    0.0000 N   0  0  0  0  0  0  0  0  0  0  0  0
   10.5218   -2.7724    0.0000 N   0  0  0  0  0  0  0  0  0  0  0  0
    3.0480   -2.7975    0.0000 C   0  0  0  0  0  0  0  0  0  0  0  0
    5.9122   -5.2776    0.0000 N   0  0  0  0  0  0  0  0  0  0  0  0
   10.9143   -4.8726    0.0000 C   0  0  0  0  0  0  0  0  0  0  0  0
    6.6304   -4.8643    0.0000 C   0  0  0  0  0  0  0  0  0  0  0  0
    3.0480   -3.6242    0.0000 N   0  0  0  0  0  0  0  0  0  0  0  0
    4.4760   -3.6242    0.0000 C   0  0  0  0  0  0  0  0  0  0  0  0
    3.7620   -4.0376    0.0000 C   0  0  0  0  0  0  0  0  0  0  0  0
    5.1899   -4.8643    0.0000 C   0  0  0  0  0  0  0  0  0  0  0  0
   10.2003   -5.2859    0.0000 C   0  0  0  0  0  0  0  0  0  0  0  0
    5.9122   -1.1441    0.0000 S   0  0  0  0  0  0  0  0  0  0  0  0
    7.3444   -3.6242    0.0000 C   0  0  0  0  0  0  0  0  0  0  0  0
    3.7620   -2.3841    0.0000 C   0  0  0  0  0  0  0  0  0  0  0  0
    5.1899   -1.5574    0.0000 C   0  0  0  0  0  0  0  0  0  0  0  0
    9.4863   -4.8726    0.0000 C   0  0  0  0  0  0  0  0  0  0  0  0
    5.9122   -2.7933    0.0000 O   0  0  0  0  0  0  0  0  0  0  0  0
    2.3215   -2.3841    0.0000 O   0  0  0  0  0  0  0  0  0  0  0  0
    3.7620   -4.8643    0.0000 C   0  0  0  0  0  0  0  0  0  0  0  0
    5.9122   -0.3174    0.0000 O   0  0  0  0  0  0  0  0  0  0  0  0
    4.4760   -5.2776    0.0000 C   0  0  0  0  0  0  0  0  0  0  0  0
    4.4760   -2.7975    0.0000 C   0  0  0  0  0  0  0  0  0  0  0  0
    3.7620   -1.5574    0.0000 C   0  0  0  0  0  0  0  0  0  0  0  0
    4.4760   -1.1441    0.0000 C   0  0  0  0  0  0  0  0  0  0  0  0
    5.1899   -2.3841    0.0000 C   0  0  0  0  0  0  0  0  0  0  0  0
    8.7723   -5.2776    0.0000 C   0  0  0  0  0  0  0  0  0  0  0  0
    9.4863   -4.0376    0.0000 C   0  0  0  0  0  0  0  0  0  0  0  0
    8.0584   -4.0376    0.0000 C   0  0  0  0  0  0  0  0  0  0  0  0
    9.4613   -3.8079    0.0000 C   0  0  0  0  0  0  0  0  0  0  0  0
    8.7723   -3.6242    0.0000 C   0  0  0  0  0  0  0  0  0  0  0  0
    8.0584   -4.8643    0.0000 C   0  0  0  0  0  0  0  0  0  0  0  0
    2.3215   -4.0333    0.0000 C   0  0  0  0  0  0  0  0  0  0  0  0
   11.6283   -5.2776    0.0000 C   0  0  0  0  0  0  0  0  0  0  0  0
   10.2003   -6.1126    0.0000 C   0  0  0  0  0  0  0  0  0  0  0  0
    6.6262   -1.5574    0.0000 C   0  0  0  0  0  0  0  0  0  0  0  0
    1.6158   -3.6200    0.0000 C   0  0  0  0  0  0  0  0  0  0  0  0
    0.1796   -3.6200    0.0000 C   0  0  0  0  0  0  0  0  0  0  0  0
    0.8935   -4.0333    0.0000 C   0  0  0  0  0  0  0  0  0  0  0  0
   11.6366   -6.1126    0.0000 C   0  0  0  0  0  0  0  0  0  0  0  0
   10.9143   -6.5260    0.0000 C   0  0  0  0  0  0  0  0  0  0  0  0
   -0.5344   -4.0250    0.0000 C   0  0  0  0  0  0  0  0  0  0  0  0
  2 19  1  0
  3  2  1  0
  4  3  1  0
  5  7  1  0
  6  1  1  0
  7  1  2  0
  8  6  1  0
  9 13  1  0
 10 12  2  0
 11  1  1  0
 12  2  1  0
 13 15  1  0
 14  4  2  0
 15 14  1  0
 16 10  1  0
 17 11  1  0
 18 21  1  0
 19 34  1  0
 20  9  1  0
 21 30  2  0
 22 17  1  0
 23  3  2  0
 24  9  2  0
 25 27  1  0
 26 18  2  0
 27 16  2  0
 28 20  1  0
 29 20  2  0
 30 29  1  0
 31 28  2  0
 32 22  2  0
 33 22  1  0
 34 36  1  0
 35  6  1  0
 36 33  2  0
 37 32  1  0
 38 13  1  0
 39 11  2  0
 40 17  2  0
 41 18  1  0
 42 38  1  0
 43 44  1  0
 44 42  1  0
 45 39  1  0
 46 45  2  0
 47 43  1  0
  5  8  2  0
 40 46  1  0
 37 34  2  0
  4 16  1  0
 15 25  2  0
 31 21  1  0
M  END
>  <From>  (1) 
www.bindingDB.org

>  <BindingDB Reactant_set_id>  (1) 
50003724

>  <Ligand InChI>  (1) 
InChI=1S/C36H35N7O3S/c1-4-5-8-21-43(35(44)27-15-18-29(19-16-27)47(3)46)28-17-20-33-32(22-28)36(45)42(24-37-33)23-25-11-13-26(14-12-25)30-9-6-7-10-31(30)34-38-39-40-41(34)2/h6-7,9-20,22,24H,4-5,8,21,23H2,1-3H3

>  <Ligand InChI Key>  (1) 
AKFWPKUOGSKYLT-UHFFFAOYSA-N

>  <BindingDB MonomerID>  (1) 
50284657

>  <BindingDB Ligand Name>  (1) 
4-Methanesulfinyl-N-{3-[2'-(1-methyl-1H-tetrazol-5-yl)-biphenyl-4-ylmethyl]-4-oxo-3,4-dihydro-quinazolin-6-yl}-N-pentyl-benzamide::CHEMBL29730

>  <Target Name>  (1) 
Type-1 angiotensin II receptor

>  <Target Source Organism According to Curator or DataSource>  (1) 
Oryctolagus cuniculus

>  <Ki (nM)>  (1) 


>  <IC50 (nM)>  (1) 
 21

>  <Kd (nM)>  (1) 


>  <EC50 (nM)>  (1) 


>  <kon (M-1-s-1)>  (1) 


>  <koff (s-1)>  (1) 


>  <pH>  (1) 


>  <Temp C>  (1) 


>  <Curation/DataSource>  (1) 
ChEMBL

>  <Article DOI>  (1) 
10.1016/0960-894X(95)00224-H

>  <BindingDB Entry DOI>  (1) 
10.7270/Q2086589

>  <PMID>  (1) 


>  <PubChem AID>  (1) 


>  <Patent Number>  (1) 


>  <Authors>  (1) 
de Laszlo, SE; Chang, RS; Chen, TB; Faust, KA; Greenlee, WJ; Kivlighn, SD; Lotti, VJ; O'Malley, SS; Schorn, TW; Schorn, TW; Siegl, PK; Tran, J; Zingaro, GJ

>  <Institution>  (1) 
TBA

>  <Link to Ligand in BindingDB>  (1) 
http://www.bindingdb.org/bind/chemsearch/marvin/MolStructure.jsp?monomerid=50284657

>  <Link to Ligand-Target Pair in BindingDB>  (1) 
http://www.bindingdb.org/jsp/dbsearch/PrimarySearch_ki.jsp?energyterm=kJ/mole&tag=r21&monomerid=50284657&enzyme=Type-1+angiotensin+II+receptor&column=ki&startPg=0&Increment=50&submit=Search

>  <Ligand HET ID in PDB>  (1) 


>  <PDB ID(s) for Ligand-Target Complex>  (1) 


>  <PubChem CID of Ligand>  (1) 
44277653

>  <PubChem SID of Ligand>  (1) 
104126228

>  <ChEBI ID of Ligand>  (1) 


>  <ChEMBL ID of Ligand>  (1) 
CHEMBL29730

>  <DrugBank ID of Ligand>  (1) 


>  <IUPHAR_GRAC ID of Ligand>  (1) 


>  <KEGG ID of Ligand>  (1) 


>  <ZINC ID of Ligand>  (1) 
ZINC28769582

>  <Number of Protein Chains in Target (bigger than 1 implies a multichain complex)>  (1) 
1

>  <BindingDB Target Chain Sequence>  (1) 
MMLNSSTEDGIKRIQDDCPKAGRHNYIFVMIPTLYSIIFVVGIFGNSLAVIVIYFYMKLKTVASVFLLNLALADLCFLLTLPLWAVYTAMEYRWPFGNYLCKIASASVSFNLYASVFLLTCLSIDRYLAIVHPMKSRLRRTMLVAKVTCIIIWLLAGLASLPAIIHRNVFFIENTNITVCAFHYESQNSTLPIGLGLTKNILGFLFPFLIILTSYTLIWKALKKAYEIQKNKPRNDDIFKIIMAIVLFFFFSWVPHQIFTFLDVLIQLGVIHDCRIADIVDTAMPITICIAYFNNCLNPLFYGFLGKKFKKYFLQLLKYIPPKAKSHSNLSTKMSTLSYRPSDNVSSSSKKPVPCFEVE

>  <PDB ID(s) of Target Chain>  (1) 
6DO1,6OS0,6OS1,6OS2

>  <UniProt (SwissProt) Recommended Name of Target Chain>  (1) 
Type-1 angiotensin II receptor

>  <UniProt (SwissProt) Entry Name of Target Chain>  (1) 
AGTR1_RABIT

>  <UniProt (SwissProt) Primary ID of Target Chain>  (1) 
P34976

>  <UniProt (SwissProt) Secondary ID(s) of Target Chain>  (1) 


>  <UniProt (SwissProt) Alternative ID(s) of Target Chain>  (1) 


>  <UniProt (TrEMBL) Submitted Name of Target Chain>  (1) 


>  <UniProt (TrEMBL) Entry Name of Target Chain>  (1) 


>  <UniProt (TrEMBL) Primary ID of Target Chain>  (1) 


>  <UniProt (TrEMBL) Secondary ID(s) of Target Chain>  (1) 


>  <UniProt (TrEMBL) Alternative ID(s) of Target Chain>  (1) 


$$$$
