
     RDKit          2D

 49 53  0  0  0  0  0  0  0  0999 V2000
    7.2417    0.6000    0.0000 S   0  0  0  0  0  0  0  0  0  0  0  0
    2.9667    0.5958    0.0000 N   0  0  0  0  0  0  0  0  0  0  0  0
    2.2417    1.0083    0.0000 C   0  0  0  0  0  0  0  0  0  0  0  0
    7.2375    1.4250    0.0000 N   0  0  0  0  0  0  0  0  0  0  0  0
    1.5292    0.5958    0.0000 C   0  0  0  0  0  0  0  0  0  0  0  0
    2.9667   -0.2375    0.0000 C   0  0  0  0  0  0  0  0  0  0  0  0
    2.2417   -0.6500    0.0000 N   0  0  0  0  0  0  0  0  0  0  0  0
    7.9542    1.8375    0.0000 C   0  0  0  0  0  0  0  0  0  0  0  0
    8.6667    1.4250    0.0000 C   0  0  0  0  0  0  0  0  0  0  0  0
    1.5292   -0.2417    0.0000 C   0  0  0  0  0  0  0  0  0  0  0  0
    7.2417   -0.2167    0.0000 C   0  0  0  0  0  0  0  0  0  0  0  0
    3.6792    1.0083    0.0000 C   0  0  0  0  0  0  0  0  0  0  0  0
   -1.3208    0.5833    0.0000 C   0  0  0  0  0  0  0  0  0  0  0  0
    4.3917    0.5958    0.0000 C   0  0  0  0  0  0  0  0  0  0  0  0
    6.5292   -0.6375    0.0000 C   0  0  0  0  0  0  0  0  0  0  0  0
    9.3792    1.8458    0.0000 C   0  0  0  0  0  0  0  0  0  0  0  0
    5.8167   -0.2292    0.0000 C   0  0  0  0  0  0  0  0  0  0  0  0
    5.1042    1.0083    0.0000 C   0  0  0  0  0  0  0  0  0  0  0  0
    8.0667    0.6000    0.0000 O   0  0  0  0  0  0  0  0  0  0  0  0
    6.4167    0.6000    0.0000 O   0  0  0  0  0  0  0  0  0  0  0  0
    5.8167    0.5958    0.0000 C   0  0  0  0  0  0  0  0  0  0  0  0
    8.6667    0.6000    0.0000 C   0  0  0  0  0  0  0  0  0  0  0  0
    0.8167    1.0000    0.0000 C   0  0  0  0  0  0  0  0  0  0  0  0
   -0.6083    0.9958    0.0000 N   0  0  0  0  0  0  0  0  0  0  0  0
    2.2417    1.8333    0.0000 O   0  0  0  0  0  0  0  0  0  0  0  0
   -2.0375    0.9958    0.0000 N   0  0  0  0  0  0  0  0  0  0  0  0
    7.9500    2.6625    0.0000 O   0  0  0  0  0  0  0  0  0  0  0  0
    0.1042    0.5833    0.0000 C   0  0  0  0  0  0  0  0  0  0  0  0
   -1.3208   -0.2417    0.0000 O   0  0  0  0  0  0  0  0  0  0  0  0
   10.0917    1.4333    0.0000 C   0  0  0  0  0  0  0  0  0  0  0  0
    4.3917   -0.2292    0.0000 C   0  0  0  0  0  0  0  0  0  0  0  0
    5.1042   -0.6417    0.0000 C   0  0  0  0  0  0  0  0  0  0  0  0
    0.8167   -0.6500    0.0000 C   0  0  0  0  0  0  0  0  0  0  0  0
    9.3750    2.6708    0.0000 F   0  0  0  0  0  0  0  0  0  0  0  0
    5.1000    1.8333    0.0000 F   0  0  0  0  0  0  0  0  0  0  0  0
    9.3792    0.1958    0.0000 C   0  0  0  0  0  0  0  0  0  0  0  0
   10.0917    0.6083    0.0000 C   0  0  0  0  0  0  0  0  0  0  0  0
    0.1042   -0.2417    0.0000 C   0  0  0  0  0  0  0  0  0  0  0  0
    3.6792   -0.6500    0.0000 C   0  0  0  0  0  0  0  0  0  0  0  0
    7.9542   -0.6292    0.0000 C   0  0  0  0  0  0  0  0  0  0  0  0
    6.5292   -1.4667    0.0000 C   0  0  0  0  0  0  0  0  0  0  0  0
   -2.7500    0.5833    0.0000 C   0  0  0  0  0  0  0  0  0  0  0  0
   10.8125    0.1958    0.0000 C   0  0  0  0  0  0  0  0  0  0  0  0
    3.6792   -1.4750    0.0000 C   0  0  0  0  0  0  0  0  0  0  0  0
   -3.4708    0.9958    0.0000 C   0  0  0  0  0  0  0  0  0  0  0  0
   -2.7500   -0.2417    0.0000 C   0  0  0  0  0  0  0  0  0  0  0  0
    7.2500   -1.8750    0.0000 C   0  0  0  0  0  0  0  0  0  0  0  0
    7.9625   -1.4625    0.0000 C   0  0  0  0  0  0  0  0  0  0  0  0
   10.8167   -0.6292    0.0000 C   0  0  0  0  0  0  0  0  0  0  0  0
  2 12  1  0
  3  2  1  0
  4  1  1  0
  5  3  1  0
  6  2  1  0
  7  6  2  0
  8  4  1  0
  9  8  1  0
 10  7  1  0
 11  1  1  0
 12 14  1  0
 13 24  1  0
 14 31  2  0
 15 11  1  0
 16  9  2  0
 17 15  1  0
 18 21  2  0
 19  1  2  0
 20  1  2  0
 21 17  1  0
 22  9  1  0
 23  5  2  0
 24 28  1  0
 25  3  2  0
 26 13  1  0
 27  8  2  0
 28 23  1  0
 29 13  2  0
 30 16  1  0
 31 32  1  0
 32 17  2  0
 33 10  2  0
 34 16  1  0
 35 18  1  0
 36 22  2  0
 37 36  1  0
 38 33  1  0
 39  6  1  0
 40 11  2  0
 41 15  2  0
 42 26  1  0
 43 37  1  0
 44 39  1  0
 45 42  1  0
 46 42  1  0
 47 48  2  0
 48 40  1  0
 49 43  1  0
 47 41  1  0
 14 18  1  0
 37 30  2  0
 10  5  1  0
 38 28  2  0
M  END
>  <From>  (1) 
www.bindingDB.org

>  <BindingDB Reactant_set_id>  (1) 
50469282

>  <Ligand InChI>  (1) 
InChI=1S/C36H35F2N5O5S/c1-5-22-11-15-27(30(38)17-22)34(44)42-49(47,48)32-10-8-7-9-26(32)23-12-13-24(29(37)18-23)20-43-33(6-2)41-31-16-14-25(19-28(31)35(43)45)40-36(46)39-21(3)4/h7-19,21H,5-6,20H2,1-4H3,(H,42,44)(H2,39,40,46)

>  <Ligand InChI Key>  (1) 
FRKWBPZUTQTJCZ-UHFFFAOYSA-N

>  <BindingDB MonomerID>  (1) 
50283312

>  <BindingDB Ligand Name>  (1) 
4'-[2-Ethyl-6-(3-isopropyl-ureido)-4-oxo-4H-quinazolin-3-ylmethyl]-3'-fluoro-biphenyl-2-sulfonic acid 4-ethyl-2-fluoro-benzoylamide::CHEMBL311160

>  <Target Name>  (1) 
Type-1 angiotensin II receptor

>  <Target Source Organism According to Curator or DataSource>  (1) 
Oryctolagus cuniculus

>  <Ki (nM)>  (1) 


>  <IC50 (nM)>  (1) 
 0.190000

>  <Kd (nM)>  (1) 


>  <EC50 (nM)>  (1) 


>  <kon (M-1-s-1)>  (1) 


>  <koff (s-1)>  (1) 


>  <pH>  (1) 


>  <Temp C>  (1) 


>  <Curation/DataSource>  (1) 
ChEMBL

>  <Article DOI>  (1) 
10.1016/0960-894X(94)85036-4

>  <BindingDB Entry DOI>  (1) 
10.7270/Q2X066Z9

>  <PMID>  (1) 


>  <PubChem AID>  (1) 


>  <Patent Number>  (1) 


>  <Authors>  (1) 
Glinka, TW; de Laszlo, SE; Siegl, PK; Chang, RS; Kivlighn, SD; Schorn, TS; Faust, KA; Chen, TB; Zingaro, GJ; Lotti, VJ; Greenlee, WJ

>  <Institution>  (1) 
TBA

>  <Link to Ligand in BindingDB>  (1) 
http://www.bindingdb.org/bind/chemsearch/marvin/MolStructure.jsp?monomerid=50283312

>  <Link to Ligand-Target Pair in BindingDB>  (1) 
http://www.bindingdb.org/jsp/dbsearch/PrimarySearch_ki.jsp?energyterm=kJ/mole&tag=r21&monomerid=50283312&enzyme=Type-1+angiotensin+II+receptor&column=ki&startPg=0&Increment=50&submit=Search

>  <Ligand HET ID in PDB>  (1) 


>  <PDB ID(s) for Ligand-Target Complex>  (1) 


>  <PubChem CID of Ligand>  (1) 
44315351

>  <PubChem SID of Ligand>  (1) 
104124969

>  <ChEBI ID of Ligand>  (1) 


>  <ChEMBL ID of Ligand>  (1) 
CHEMBL311160

>  <DrugBank ID of Ligand>  (1) 


>  <IUPHAR_GRAC ID of Ligand>  (1) 


>  <KEGG ID of Ligand>  (1) 


>  <ZINC ID of Ligand>  (1) 
ZINC26401006

>  <Number of Protein Chains in Target (bigger than 1 implies a multichain complex)>  (1) 
1

>  <BindingDB Target Chain Sequence>  (1) 
MMLNSSTEDGIKRIQDDCPKAGRHNYIFVMIPTLYSIIFVVGIFGNSLAVIVIYFYMKLKTVASVFLLNLALADLCFLLTLPLWAVYTAMEYRWPFGNYLCKIASASVSFNLYASVFLLTCLSIDRYLAIVHPMKSRLRRTMLVAKVTCIIIWLLAGLASLPAIIHRNVFFIENTNITVCAFHYESQNSTLPIGLGLTKNILGFLFPFLIILTSYTLIWKALKKAYEIQKNKPRNDDIFKIIMAIVLFFFFSWVPHQIFTFLDVLIQLGVIHDCRIADIVDTAMPITICIAYFNNCLNPLFYGFLGKKFKKYFLQLLKYIPPKAKSHSNLSTKMSTLSYRPSDNVSSSSKKPVPCFEVE

>  <PDB ID(s) of Target Chain>  (1) 
6DO1,6OS0,6OS1,6OS2

>  <UniProt (SwissProt) Recommended Name of Target Chain>  (1) 
Type-1 angiotensin II receptor

>  <UniProt (SwissProt) Entry Name of Target Chain>  (1) 
AGTR1_RABIT

>  <UniProt (SwissProt) Primary ID of Target Chain>  (1) 
P34976

>  <UniProt (SwissProt) Secondary ID(s) of Target Chain>  (1) 


>  <UniProt (SwissProt) Alternative ID(s) of Target Chain>  (1) 


>  <UniProt (TrEMBL) Submitted Name of Target Chain>  (1) 


>  <UniProt (TrEMBL) Entry Name of Target Chain>  (1) 


>  <UniProt (TrEMBL) Primary ID of Target Chain>  (1) 


>  <UniProt (TrEMBL) Secondary ID(s) of Target Chain>  (1) 


>  <UniProt (TrEMBL) Alternative ID(s) of Target Chain>  (1) 


$$$$
