
     RDKit          2D

 30 33  0  0  0  0  0  0  0  0999 V2000
   -2.2718    0.4073    0.0000 C   0  0  0  0  0  0  0  0  0  0  0  0
   -2.8512   -0.1893    0.0000 N   0  0  0  0  0  0  0  0  0  0  0  0
   -2.6619    1.1359    0.0000 C   0  0  0  0  0  0  0  0  0  0  0  0
   -3.4707    0.9924    0.0000 N   0  0  0  0  0  0  0  0  0  0  0  0
   -3.5912    0.1835    0.0000 C   0  0  0  0  0  0  0  0  0  0  0  0
    0.6368   -1.8243    0.0000 C   0  0  0  0  0  0  0  0  0  0  0  0
    0.5393   -2.6390    0.0000 C   0  0  0  0  0  0  0  0  0  0  0  0
    0.0230   -1.2622    0.0000 N   0  0  0  0  0  0  0  0  0  0  0  0
    0.3672   -0.5163    0.0000 N   0  0  0  0  0  0  0  0  0  0  0  0
    1.3482   -1.4170    0.0000 N   0  0  0  0  0  0  0  0  0  0  0  0
   -0.2409   -2.8914    0.0000 C   0  0  0  0  0  0  0  0  0  0  0  0
    1.1875   -0.6082    0.0000 N   0  0  0  0  0  0  0  0  0  0  0  0
   -1.4743    0.6196    0.0000 C   0  0  0  0  0  0  0  0  0  0  0  0
   -2.8570   -1.0154    0.0000 C   0  0  0  0  0  0  0  0  0  0  0  0
   -0.8720   -2.4841    0.0000 C   0  0  0  0  0  0  0  0  0  0  0  0
   -2.2890    1.8874    0.0000 Cl  0  0  0  0  0  0  0  0  0  0  0  0
   -1.2678    1.4227    0.0000 O   0  0  0  0  0  0  0  0  0  0  0  0
   -1.6292   -2.8111    0.0000 C   0  0  0  0  0  0  0  0  0  0  0  0
   -0.7745   -1.6580    0.0000 C   0  0  0  0  0  0  0  0  0  0  0  0
   -2.1972   -1.5031    0.0000 C   0  0  0  0  0  0  0  0  0  0  0  0
   -0.8892    0.0458    0.0000 O   0  0  0  0  0  0  0  0  0  0  0  0
   -4.3198   -0.2065    0.0000 C   0  0  0  0  0  0  0  0  0  0  0  0
    1.0212   -3.3102    0.0000 C   0  0  0  0  0  0  0  0  0  0  0  0
   -0.2524   -3.7061    0.0000 C   0  0  0  0  0  0  0  0  0  0  0  0
   -2.2890   -2.3234    0.0000 C   0  0  0  0  0  0  0  0  0  0  0  0
   -1.4399   -1.1703    0.0000 C   0  0  0  0  0  0  0  0  0  0  0  0
    0.5393   -3.9756    0.0000 C   0  0  0  0  0  0  0  0  0  0  0  0
   -5.0197    0.2352    0.0000 C   0  0  0  0  0  0  0  0  0  0  0  0
   -5.7483   -0.1435    0.0000 C   0  0  0  0  0  0  0  0  0  0  0  0
   -6.4482    0.2926    0.0000 C   0  0  0  0  0  0  0  0  0  0  0  0
  2  1  1  0
  3  1  2  0
  4  3  1  0
  5  2  1  0
  6  7  1  0
  7 11  2  0
  8  6  1  0
  9  8  1  0
 10  6  2  0
 11 15  1  0
 12 10  1  0
 13  1  1  0
 14  2  1  0
 15 19  2  0
 16  3  1  0
 17 13  2  0
 18 25  2  0
 19 26  1  0
 20 14  1  0
 21 13  1  0
 22  5  1  0
 23  7  1  0
 24 11  1  0
 25 20  1  0
 26 20  2  0
 27 24  1  0
 28 22  1  0
 29 28  1  0
 30 29  1  0
  4  5  2  0
 18 15  1  0
 27 23  1  0
 12  9  2  0
M  END
>  <From>  (1) 
www.bindingDB.org

>  <BindingDB Reactant_set_id>  (1) 
50010093

>  <Ligand InChI>  (1) 
InChI=1S/C21H23ClN6O2/c1-2-3-7-17-23-19(22)18(21(29)30)28(17)12-13-8-10-14(11-9-13)15-5-4-6-16(15)20-24-26-27-25-20/h8-11H,2-7,12H2,1H3,(H,29,30)(H,24,25,26,27)

>  <Ligand InChI Key>  (1) 
UBKAMOLGEHJARN-UHFFFAOYSA-N

>  <BindingDB MonomerID>  (1) 
50006911

>  <BindingDB Ligand Name>  (1) 
2-Butyl-5-chloro-3-{4-[2-(2H-tetrazol-5-yl)-cyclopent-1-enyl]-benzyl}-3H-imidazole-4-carboxylic acid::CHEMBL89216

>  <Target Name>  (1) 
Type-1 angiotensin II receptor B

>  <Target Source Organism According to Curator or DataSource>  (1) 
Rattus

>  <Ki (nM)>  (1) 


>  <IC50 (nM)>  (1) 
 310

>  <Kd (nM)>  (1) 


>  <EC50 (nM)>  (1) 


>  <kon (M-1-s-1)>  (1) 


>  <koff (s-1)>  (1) 


>  <pH>  (1) 


>  <Temp C>  (1) 


>  <Curation/DataSource>  (1) 
ChEMBL

>  <Article DOI>  (1) 
10.1021/jm00092a017

>  <BindingDB Entry DOI>  (1) 
10.7270/Q2930S4R

>  <PMID>  (1) 
1635064

>  <PubChem AID>  (1) 


>  <Patent Number>  (1) 


>  <Authors>  (1) 
Lin, HS; Rampersaud, AA; Zimmerman, K; Steinberg, MI; Boyd, DB

>  <Institution>  (1) 
Eli Lilly and Company

>  <Link to Ligand in BindingDB>  (1) 
http://www.bindingdb.org/bind/chemsearch/marvin/MolStructure.jsp?monomerid=50006911

>  <Link to Ligand-Target Pair in BindingDB>  (1) 
http://www.bindingdb.org/jsp/dbsearch/PrimarySearch_ki.jsp?energyterm=kJ/mole&tag=r21&monomerid=50006911&enzyme=Type-1+angiotensin+II+receptor+B&column=ki&startPg=0&Increment=50&submit=Search

>  <Ligand HET ID in PDB>  (1) 


>  <PDB ID(s) for Ligand-Target Complex>  (1) 


>  <PubChem CID of Ligand>  (1) 
44323091

>  <PubChem SID of Ligand>  (1) 
103920214

>  <ChEBI ID of Ligand>  (1) 


>  <ChEMBL ID of Ligand>  (1) 
CHEMBL89216

>  <DrugBank ID of Ligand>  (1) 


>  <IUPHAR_GRAC ID of Ligand>  (1) 


>  <KEGG ID of Ligand>  (1) 


>  <ZINC ID of Ligand>  (1) 
ZINC13725532

>  <Number of Protein Chains in Target (bigger than 1 implies a multichain complex)>  (1) 
1

>  <BindingDB Target Chain Sequence>  (1) 
MTLNSSTEDGIKRIQDDCPKAGRHNYIFVMIPTLYSIIFVVGIFGNSLVVIVIYFYMKLKTVASVFLLNLALADLCFLLTLPLWAVYTAMEYRWPFGNHLCKIASASVSFNLYASVFLLTCLSIDRYLAIVHPMKSRLRRTMLVAKVTCIIIWLMAGLASLPAVIYRNVYFIENTNITVCAFHYESQNSTLPIGLGLTKNILGFVFPFLIILTSYTLIWKALKKAYKIQKNTPRNDDIFRIIMAIVLFFFFSWVPHQIFTFLDVLIQLGIIRDCEIADIVDTAMPITICIAYFNNCLNPLFYGFLGKKFKKYFLQLLKYIPPTAKSHAGLSTKMSTLSYRPSDNMSSSAKKSASFFEVE

>  <PDB ID(s) of Target Chain>  (1) 


>  <UniProt (SwissProt) Recommended Name of Target Chain>  (1) 
Type-1 angiotensin II receptor B

>  <UniProt (SwissProt) Entry Name of Target Chain>  (1) 
AGTRB_RAT

>  <UniProt (SwissProt) Primary ID of Target Chain>  (1) 
P29089

>  <UniProt (SwissProt) Secondary ID(s) of Target Chain>  (1) 


>  <UniProt (SwissProt) Alternative ID(s) of Target Chain>  (1) 


>  <UniProt (TrEMBL) Submitted Name of Target Chain>  (1) 


>  <UniProt (TrEMBL) Entry Name of Target Chain>  (1) 


>  <UniProt (TrEMBL) Primary ID of Target Chain>  (1) 


>  <UniProt (TrEMBL) Secondary ID(s) of Target Chain>  (1) 


>  <UniProt (TrEMBL) Alternative ID(s) of Target Chain>  (1) 


$$$$
