
     RDKit          2D

 37 40  0  0  0  0  0  0  0  0999 V2000
    1.1417   -1.7042    0.0000 N   0  0  0  0  0  0  0  0  0  0  0  0
    1.8042   -1.2167    0.0000 C   0  0  0  0  0  0  0  0  0  0  0  0
    1.5542   -0.4292    0.0000 N   0  0  0  0  0  0  0  0  0  0  0  0
    0.7292   -0.4292    0.0000 N   0  0  0  0  0  0  0  0  0  0  0  0
    0.4750   -1.2167    0.0000 C   0  0  0  0  0  0  0  0  0  0  0  0
    4.7125   -3.7667    0.0000 C   0  0  0  0  0  0  0  0  0  0  0  0
    5.4292   -4.1792    0.0000 C   0  0  0  0  0  0  0  0  0  0  0  0
    6.1375   -3.7667    0.0000 C   0  0  0  0  0  0  0  0  0  0  0  0
    6.1292   -2.9375    0.0000 C   0  0  0  0  0  0  0  0  0  0  0  0
    4.0000   -4.1792    0.0000 N   0  0  0  0  0  0  0  0  0  0  0  0
    2.6292   -1.2167    0.0000 S   0  0  0  0  0  0  0  0  0  0  0  0
    1.1417   -2.5292    0.0000 C   0  0  0  0  0  0  0  0  0  0  0  0
    3.8667   -0.5000    0.0000 C   0  0  0  0  0  0  0  0  0  0  0  0
    4.7125   -2.9417    0.0000 O   0  0  0  0  0  0  0  0  0  0  0  0
    3.0417   -0.5000    0.0000 C   0  0  0  0  0  0  0  0  0  0  0  0
    5.4125   -2.5292    0.0000 O   0  0  0  0  0  0  0  0  0  0  0  0
    4.2750    0.2125    0.0000 C   0  0  0  0  0  0  0  0  0  0  0  0
    3.2792   -3.7667    0.0000 C   0  0  0  0  0  0  0  0  0  0  0  0
    1.8542   -2.9417    0.0000 C   0  0  0  0  0  0  0  0  0  0  0  0
    6.8417   -2.5167    0.0000 O   0  0  0  0  0  0  0  0  0  0  0  0
    3.8542    0.9333    0.0000 Cl  0  0  0  0  0  0  0  0  0  0  0  0
    3.2792   -2.9417    0.0000 C   0  0  0  0  0  0  0  0  0  0  0  0
    2.5750   -4.1792    0.0000 C   0  0  0  0  0  0  0  0  0  0  0  0
    1.8542   -3.7667    0.0000 C   0  0  0  0  0  0  0  0  0  0  0  0
    2.5667   -2.5292    0.0000 C   0  0  0  0  0  0  0  0  0  0  0  0
   -0.3500   -1.2167    0.0000 C   0  0  0  0  0  0  0  0  0  0  0  0
    5.4250   -5.0042    0.0000 C   0  0  0  0  0  0  0  0  0  0  0  0
    6.8500   -4.1750    0.0000 C   0  0  0  0  0  0  0  0  0  0  0  0
    4.2750   -1.2167    0.0000 C   0  0  0  0  0  0  0  0  0  0  0  0
    5.0917    0.2125    0.0000 C   0  0  0  0  0  0  0  0  0  0  0  0
   -0.7625   -0.5042    0.0000 C   0  0  0  0  0  0  0  0  0  0  0  0
   -1.5875   -0.5042    0.0000 C   0  0  0  0  0  0  0  0  0  0  0  0
    6.8542   -5.0042    0.0000 C   0  0  0  0  0  0  0  0  0  0  0  0
    6.1375   -5.4167    0.0000 C   0  0  0  0  0  0  0  0  0  0  0  0
    5.1000   -1.2167    0.0000 C   0  0  0  0  0  0  0  0  0  0  0  0
   -2.0000    0.2125    0.0000 C   0  0  0  0  0  0  0  0  0  0  0  0
    5.5125   -0.5042    0.0000 C   0  0  0  0  0  0  0  0  0  0  0  0
  2  1  1  0
  3  2  2  0
  4  5  2  0
  5  1  1  0
  6 10  1  0
  7  6  1  0
  8  7  2  0
  9  8  1  0
 10 18  1  0
 11  2  1  0
 12  1  1  0
 13 15  1  0
 14  6  2  0
 15 11  1  0
 16  9  2  0
 17 13  2  0
 18 22  2  0
 19 12  1  0
 20  9  1  0
 21 17  1  0
 22 25  1  0
 23 24  2  0
 24 19  1  0
 25 19  2  0
 26  5  1  0
 27  7  1  0
 28  8  1  0
 29 13  1  0
 30 17  1  0
 31 26  1  0
 32 31  1  0
 33 34  1  0
 34 27  2  0
 35 29  2  0
 36 32  1  0
 37 35  1  0
  3  4  1  0
 23 18  1  0
 30 37  2  0
 33 28  2  0
M  END
>  <From>  (1) 
www.bindingDB.org

>  <BindingDB Reactant_set_id>  (1) 
50035009

>  <Ligand InChI>  (1) 
InChI=1S/C28H27ClN4O3S/c1-2-3-12-25-31-32-28(37-18-20-8-4-7-11-24(20)29)33(25)17-19-13-15-21(16-14-19)30-26(34)22-9-5-6-10-23(22)27(35)36/h4-11,13-16H,2-3,12,17-18H2,1H3,(H,30,34)(H,35,36)

>  <Ligand InChI Key>  (1) 
DPVLKPTYCDXXGC-UHFFFAOYSA-N

>  <BindingDB MonomerID>  (1) 
50047811

>  <BindingDB Ligand Name>  (1) 
CHEMBL423233::N-{4-[3-Butyl-5-(2-chloro-benzylsulfanyl)-[1,2,4]triazol-4-ylmethyl]-phenyl}-phthalamic acid

>  <Target Name>  (1) 
Type-1 angiotensin II receptor

>  <Target Source Organism According to Curator or DataSource>  (1) 
Oryctolagus cuniculus

>  <Ki (nM)>  (1) 


>  <IC50 (nM)>  (1) 
 30

>  <Kd (nM)>  (1) 


>  <EC50 (nM)>  (1) 


>  <kon (M-1-s-1)>  (1) 


>  <koff (s-1)>  (1) 


>  <pH>  (1) 


>  <Temp C>  (1) 


>  <Curation/DataSource>  (1) 
ChEMBL

>  <Article DOI>  (1) 
10.1021/jm00057a009

>  <BindingDB Entry DOI>  (1) 
10.7270/Q2P55MKH

>  <PMID>  (1) 
8496939

>  <PubChem AID>  (1) 


>  <Patent Number>  (1) 


>  <Authors>  (1) 
Ashton, WT; Cantone, CL; Chang, LL; Hutchins, SM; Strelitz, RA; MacCoss, M; Chang, RS; Lotti, VJ; Faust, KA; Chen, TB

>  <Institution>  (1) 
Merck Research Laboratories

>  <Link to Ligand in BindingDB>  (1) 
http://www.bindingdb.org/bind/chemsearch/marvin/MolStructure.jsp?monomerid=50047811

>  <Link to Ligand-Target Pair in BindingDB>  (1) 
http://www.bindingdb.org/jsp/dbsearch/PrimarySearch_ki.jsp?energyterm=kJ/mole&tag=r21&monomerid=50047811&enzyme=Type-1+angiotensin+II+receptor&column=ki&startPg=0&Increment=50&submit=Search

>  <Ligand HET ID in PDB>  (1) 


>  <PDB ID(s) for Ligand-Target Complex>  (1) 


>  <PubChem CID of Ligand>  (1) 
10414778

>  <PubChem SID of Ligand>  (1) 
103978375

>  <ChEBI ID of Ligand>  (1) 


>  <ChEMBL ID of Ligand>  (1) 
CHEMBL423233

>  <DrugBank ID of Ligand>  (1) 


>  <IUPHAR_GRAC ID of Ligand>  (1) 


>  <KEGG ID of Ligand>  (1) 
C06374

>  <ZINC ID of Ligand>  (1) 
ZINC27716373

>  <Number of Protein Chains in Target (bigger than 1 implies a multichain complex)>  (1) 
1

>  <BindingDB Target Chain Sequence>  (1) 
MMLNSSTEDGIKRIQDDCPKAGRHNYIFVMIPTLYSIIFVVGIFGNSLAVIVIYFYMKLKTVASVFLLNLALADLCFLLTLPLWAVYTAMEYRWPFGNYLCKIASASVSFNLYASVFLLTCLSIDRYLAIVHPMKSRLRRTMLVAKVTCIIIWLLAGLASLPAIIHRNVFFIENTNITVCAFHYESQNSTLPIGLGLTKNILGFLFPFLIILTSYTLIWKALKKAYEIQKNKPRNDDIFKIIMAIVLFFFFSWVPHQIFTFLDVLIQLGVIHDCRIADIVDTAMPITICIAYFNNCLNPLFYGFLGKKFKKYFLQLLKYIPPKAKSHSNLSTKMSTLSYRPSDNVSSSSKKPVPCFEVE

>  <PDB ID(s) of Target Chain>  (1) 
6DO1,6OS0,6OS1,6OS2

>  <UniProt (SwissProt) Recommended Name of Target Chain>  (1) 
Type-1 angiotensin II receptor

>  <UniProt (SwissProt) Entry Name of Target Chain>  (1) 
AGTR1_RABIT

>  <UniProt (SwissProt) Primary ID of Target Chain>  (1) 
P34976

>  <UniProt (SwissProt) Secondary ID(s) of Target Chain>  (1) 


>  <UniProt (SwissProt) Alternative ID(s) of Target Chain>  (1) 


>  <UniProt (TrEMBL) Submitted Name of Target Chain>  (1) 


>  <UniProt (TrEMBL) Entry Name of Target Chain>  (1) 


>  <UniProt (TrEMBL) Primary ID of Target Chain>  (1) 


>  <UniProt (TrEMBL) Secondary ID(s) of Target Chain>  (1) 


>  <UniProt (TrEMBL) Alternative ID(s) of Target Chain>  (1) 


$$$$
