
     RDKit          2D

 44 47  0  0  0  0  0  0  0  0999 V2000
    8.8042   -2.9667    0.0000 S   0  0  0  0  0  0  0  0  0  0  0  0
    4.5292   -2.9625    0.0000 N   0  0  0  0  0  0  0  0  0  0  0  0
    3.8042   -2.5417    0.0000 C   0  0  0  0  0  0  0  0  0  0  0  0
    3.0917   -2.9625    0.0000 C   0  0  0  0  0  0  0  0  0  0  0  0
    4.5292   -3.7917    0.0000 C   0  0  0  0  0  0  0  0  0  0  0  0
    3.8042   -4.2042    0.0000 N   0  0  0  0  0  0  0  0  0  0  0  0
    8.8000   -2.1417    0.0000 N   0  0  0  0  0  0  0  0  0  0  0  0
    3.0875   -3.7917    0.0000 C   0  0  0  0  0  0  0  0  0  0  0  0
    8.8042   -3.7917    0.0000 C   0  0  0  0  0  0  0  0  0  0  0  0
    0.2292   -2.9667    0.0000 C   0  0  0  0  0  0  0  0  0  0  0  0
    9.5167   -1.7292    0.0000 C   0  0  0  0  0  0  0  0  0  0  0  0
    8.0917   -4.2042    0.0000 C   0  0  0  0  0  0  0  0  0  0  0  0
    7.9792   -2.9667    0.0000 O   0  0  0  0  0  0  0  0  0  0  0  0
    9.6292   -2.9667    0.0000 O   0  0  0  0  0  0  0  0  0  0  0  0
    5.2417   -2.5542    0.0000 C   0  0  0  0  0  0  0  0  0  0  0  0
    2.3750   -2.5500    0.0000 C   0  0  0  0  0  0  0  0  0  0  0  0
    0.9500   -2.5542    0.0000 N   0  0  0  0  0  0  0  0  0  0  0  0
    3.8042   -1.7167    0.0000 O   0  0  0  0  0  0  0  0  0  0  0  0
   -0.4833   -2.5542    0.0000 N   0  0  0  0  0  0  0  0  0  0  0  0
    7.3792   -3.7917    0.0000 C   0  0  0  0  0  0  0  0  0  0  0  0
    1.6625   -2.9625    0.0000 C   0  0  0  0  0  0  0  0  0  0  0  0
    0.2292   -3.7917    0.0000 O   0  0  0  0  0  0  0  0  0  0  0  0
   10.2292   -2.1417    0.0000 O   0  0  0  0  0  0  0  0  0  0  0  0
    2.3750   -4.2042    0.0000 C   0  0  0  0  0  0  0  0  0  0  0  0
    6.6625   -4.2042    0.0000 C   0  0  0  0  0  0  0  0  0  0  0  0
    7.3792   -2.9667    0.0000 C   0  0  0  0  0  0  0  0  0  0  0  0
    5.9542   -2.9667    0.0000 C   0  0  0  0  0  0  0  0  0  0  0  0
    9.5125   -0.9042    0.0000 O   0  0  0  0  0  0  0  0  0  0  0  0
    1.6625   -3.7917    0.0000 C   0  0  0  0  0  0  0  0  0  0  0  0
    5.2417   -4.2125    0.0000 C   0  0  0  0  0  0  0  0  0  0  0  0
    5.9500   -3.7917    0.0000 C   0  0  0  0  0  0  0  0  0  0  0  0
    6.6667   -2.5542    0.0000 C   0  0  0  0  0  0  0  0  0  0  0  0
    9.5167   -4.2042    0.0000 C   0  0  0  0  0  0  0  0  0  0  0  0
    8.0917   -5.0292    0.0000 C   0  0  0  0  0  0  0  0  0  0  0  0
   -1.1958   -2.9667    0.0000 C   0  0  0  0  0  0  0  0  0  0  0  0
   10.2292   -0.4917    0.0000 C   0  0  0  0  0  0  0  0  0  0  0  0
    5.2417   -5.0375    0.0000 C   0  0  0  0  0  0  0  0  0  0  0  0
   10.2292    0.3333    0.0000 C   0  0  0  0  0  0  0  0  0  0  0  0
   -1.9083   -2.5542    0.0000 C   0  0  0  0  0  0  0  0  0  0  0  0
   -1.1958   -3.7917    0.0000 C   0  0  0  0  0  0  0  0  0  0  0  0
    8.8042   -5.4417    0.0000 C   0  0  0  0  0  0  0  0  0  0  0  0
    9.5167   -5.0292    0.0000 C   0  0  0  0  0  0  0  0  0  0  0  0
    5.9542   -5.4500    0.0000 C   0  0  0  0  0  0  0  0  0  0  0  0
   10.9417    0.7458    0.0000 C   0  0  0  0  0  0  0  0  0  0  0  0
  2 15  1  0
  3  2  1  0
  4  3  1  0
  5  2  1  0
  6  5  2  0
  7  1  1  0
  8  6  1  0
  9  1  1  0
 10 17  1  0
 11  7  1  0
 12  9  2  0
 13  1  2  0
 14  1  2  0
 15 27  1  0
 16  4  2  0
 17 21  1  0
 18  3  2  0
 19 10  1  0
 20 12  1  0
 21 16  1  0
 22 10  2  0
 23 11  2  0
 24  8  2  0
 25 20  2  0
 26 20  1  0
 27 32  1  0
 28 11  1  0
 29 24  1  0
 30  5  1  0
 31 25  1  0
 32 26  2  0
 33  9  1  0
 34 12  1  0
 35 19  1  0
 36 28  1  0
 37 30  1  0
 38 36  1  0
 39 35  1  0
 40 35  1  0
 41 42  1  0
 42 33  2  0
 43 37  1  0
 44 38  1  0
 34 41  2  0
 27 31  2  0
  4  8  1  0
 21 29  2  0
M  END
>  <From>  (1) 
www.bindingDB.org

>  <BindingDB Reactant_set_id>  (1) 
50002789

>  <Ligand InChI>  (1) 
InChI=1S/C32H37N5O6S/c1-5-9-29-35-27-17-16-24(34-31(39)33-21(3)4)19-26(27)30(38)37(29)20-22-12-14-23(15-13-22)25-10-7-8-11-28(25)44(41,42)36-32(40)43-18-6-2/h7-8,10-17,19,21H,5-6,9,18,20H2,1-4H3,(H,36,40)(H2,33,34,39)

>  <Ligand InChI Key>  (1) 
HQRUKPDWWQAAIF-UHFFFAOYSA-N

>  <BindingDB MonomerID>  (1) 
50282477

>  <BindingDB Ligand Name>  (1) 
CHEMBL168413::Quinazolinone Analog

>  <Target Name>  (1) 
Type-1 angiotensin II receptor

>  <Target Source Organism According to Curator or DataSource>  (1) 
Oryctolagus cuniculus

>  <Ki (nM)>  (1) 


>  <IC50 (nM)>  (1) 
 0.250000

>  <Kd (nM)>  (1) 


>  <EC50 (nM)>  (1) 


>  <kon (M-1-s-1)>  (1) 


>  <koff (s-1)>  (1) 


>  <pH>  (1) 


>  <Temp C>  (1) 


>  <Curation/DataSource>  (1) 
ChEMBL

>  <Article DOI>  (1) 
10.1016/S0960-894X(01)81126-4

>  <BindingDB Entry DOI>  (1) 
10.7270/Q2D79BBS

>  <PMID>  (1) 


>  <PubChem AID>  (1) 


>  <Patent Number>  (1) 


>  <Authors>  (1) 
Glinka, TW; de Laszlo, SE; Siegl, PK; Chang, RS; Kivlighn, SD; Schorn, TS; Faust, KA; Chen, TB; Zingaro, GJ; Lotti, VJ; Greenlee, WJ

>  <Institution>  (1) 
TBA

>  <Link to Ligand in BindingDB>  (1) 
http://www.bindingdb.org/bind/chemsearch/marvin/MolStructure.jsp?monomerid=50282477

>  <Link to Ligand-Target Pair in BindingDB>  (1) 
http://www.bindingdb.org/jsp/dbsearch/PrimarySearch_ki.jsp?energyterm=kJ/mole&tag=r21&monomerid=50282477&enzyme=Type-1+angiotensin+II+receptor&column=ki&startPg=0&Increment=50&submit=Search

>  <Ligand HET ID in PDB>  (1) 


>  <PDB ID(s) for Ligand-Target Complex>  (1) 


>  <PubChem CID of Ligand>  (1) 
44210589

>  <PubChem SID of Ligand>  (1) 
104124151

>  <ChEBI ID of Ligand>  (1) 


>  <ChEMBL ID of Ligand>  (1) 
CHEMBL168413

>  <DrugBank ID of Ligand>  (1) 


>  <IUPHAR_GRAC ID of Ligand>  (1) 


>  <KEGG ID of Ligand>  (1) 


>  <ZINC ID of Ligand>  (1) 
ZINC03842962

>  <Number of Protein Chains in Target (bigger than 1 implies a multichain complex)>  (1) 
1

>  <BindingDB Target Chain Sequence>  (1) 
MMLNSSTEDGIKRIQDDCPKAGRHNYIFVMIPTLYSIIFVVGIFGNSLAVIVIYFYMKLKTVASVFLLNLALADLCFLLTLPLWAVYTAMEYRWPFGNYLCKIASASVSFNLYASVFLLTCLSIDRYLAIVHPMKSRLRRTMLVAKVTCIIIWLLAGLASLPAIIHRNVFFIENTNITVCAFHYESQNSTLPIGLGLTKNILGFLFPFLIILTSYTLIWKALKKAYEIQKNKPRNDDIFKIIMAIVLFFFFSWVPHQIFTFLDVLIQLGVIHDCRIADIVDTAMPITICIAYFNNCLNPLFYGFLGKKFKKYFLQLLKYIPPKAKSHSNLSTKMSTLSYRPSDNVSSSSKKPVPCFEVE

>  <PDB ID(s) of Target Chain>  (1) 
6DO1,6OS0,6OS1,6OS2

>  <UniProt (SwissProt) Recommended Name of Target Chain>  (1) 
Type-1 angiotensin II receptor

>  <UniProt (SwissProt) Entry Name of Target Chain>  (1) 
AGTR1_RABIT

>  <UniProt (SwissProt) Primary ID of Target Chain>  (1) 
P34976

>  <UniProt (SwissProt) Secondary ID(s) of Target Chain>  (1) 


>  <UniProt (SwissProt) Alternative ID(s) of Target Chain>  (1) 


>  <UniProt (TrEMBL) Submitted Name of Target Chain>  (1) 


>  <UniProt (TrEMBL) Entry Name of Target Chain>  (1) 


>  <UniProt (TrEMBL) Primary ID of Target Chain>  (1) 


>  <UniProt (TrEMBL) Secondary ID(s) of Target Chain>  (1) 


>  <UniProt (TrEMBL) Alternative ID(s) of Target Chain>  (1) 


$$$$
