
     RDKit          2D

 48 52  0  0  0  0  0  0  0  0999 V2000
    8.8042   -2.9667    0.0000 S   0  0  0  0  0  0  0  0  0  0  0  0
    4.5292   -2.9625    0.0000 N   0  0  0  0  0  0  0  0  0  0  0  0
    3.8042   -2.5417    0.0000 C   0  0  0  0  0  0  0  0  0  0  0  0
    3.0917   -2.9625    0.0000 C   0  0  0  0  0  0  0  0  0  0  0  0
    4.5292   -3.7917    0.0000 C   0  0  0  0  0  0  0  0  0  0  0  0
    3.8042   -4.2042    0.0000 N   0  0  0  0  0  0  0  0  0  0  0  0
    8.8000   -2.1417    0.0000 N   0  0  0  0  0  0  0  0  0  0  0  0
    0.2292   -2.9667    0.0000 C   0  0  0  0  0  0  0  0  0  0  0  0
    3.0875   -3.7917    0.0000 C   0  0  0  0  0  0  0  0  0  0  0  0
    8.8042   -3.7917    0.0000 C   0  0  0  0  0  0  0  0  0  0  0  0
   -0.4833   -2.5542    0.0000 N   0  0  0  0  0  0  0  0  0  0  0  0
    9.5167   -1.7292    0.0000 C   0  0  0  0  0  0  0  0  0  0  0  0
    8.0917   -4.2042    0.0000 C   0  0  0  0  0  0  0  0  0  0  0  0
    0.9500   -2.5542    0.0000 N   0  0  0  0  0  0  0  0  0  0  0  0
    7.9792   -2.9667    0.0000 O   0  0  0  0  0  0  0  0  0  0  0  0
    9.6292   -2.9667    0.0000 O   0  0  0  0  0  0  0  0  0  0  0  0
    5.2417   -2.5542    0.0000 C   0  0  0  0  0  0  0  0  0  0  0  0
    2.3750   -2.5500    0.0000 C   0  0  0  0  0  0  0  0  0  0  0  0
    3.8042   -1.7167    0.0000 O   0  0  0  0  0  0  0  0  0  0  0  0
    7.3792   -3.7917    0.0000 C   0  0  0  0  0  0  0  0  0  0  0  0
    1.6625   -2.9625    0.0000 C   0  0  0  0  0  0  0  0  0  0  0  0
    0.2292   -3.7917    0.0000 O   0  0  0  0  0  0  0  0  0  0  0  0
   10.2292   -2.1417    0.0000 O   0  0  0  0  0  0  0  0  0  0  0  0
    2.3750   -4.2042    0.0000 C   0  0  0  0  0  0  0  0  0  0  0  0
   -1.9083   -1.7250    0.0000 O   0  0  0  0  0  0  0  0  0  0  0  0
    7.3792   -2.9667    0.0000 C   0  0  0  0  0  0  0  0  0  0  0  0
    6.6625   -4.2042    0.0000 C   0  0  0  0  0  0  0  0  0  0  0  0
    5.9542   -2.9667    0.0000 C   0  0  0  0  0  0  0  0  0  0  0  0
    9.5125   -0.9042    0.0000 O   0  0  0  0  0  0  0  0  0  0  0  0
    1.6625   -3.7917    0.0000 C   0  0  0  0  0  0  0  0  0  0  0  0
    5.2417   -4.2125    0.0000 C   0  0  0  0  0  0  0  0  0  0  0  0
    6.6667   -2.5542    0.0000 C   0  0  0  0  0  0  0  0  0  0  0  0
    5.9500   -3.7917    0.0000 C   0  0  0  0  0  0  0  0  0  0  0  0
   -0.4833   -1.7292    0.0000 C   0  0  0  0  0  0  0  0  0  0  0  0
   -1.1958   -2.9667    0.0000 C   0  0  0  0  0  0  0  0  0  0  0  0
    9.5167   -4.2042    0.0000 C   0  0  0  0  0  0  0  0  0  0  0  0
   10.2292   -0.4917    0.0000 C   0  0  0  0  0  0  0  0  0  0  0  0
    8.0917   -5.0292    0.0000 C   0  0  0  0  0  0  0  0  0  0  0  0
   -1.9125   -2.5500    0.0000 C   0  0  0  0  0  0  0  0  0  0  0  0
   -1.1958   -1.3167    0.0000 C   0  0  0  0  0  0  0  0  0  0  0  0
   10.2292    0.3333    0.0000 C   0  0  0  0  0  0  0  0  0  0  0  0
   10.9417    0.7458    0.0000 C   0  0  0  0  0  0  0  0  0  0  0  0
    5.2417   -5.0375    0.0000 C   0  0  0  0  0  0  0  0  0  0  0  0
    9.5167   -5.0292    0.0000 C   0  0  0  0  0  0  0  0  0  0  0  0
    8.8042   -5.4417    0.0000 C   0  0  0  0  0  0  0  0  0  0  0  0
   11.6542    0.3333    0.0000 C   0  0  0  0  0  0  0  0  0  0  0  0
   10.9417    1.5708    0.0000 C   0  0  0  0  0  0  0  0  0  0  0  0
    5.9542   -5.4500    0.0000 C   0  0  0  0  0  0  0  0  0  0  0  0
  2 17  1  0
  3  2  1  0
  4  3  1  0
  5  2  1  0
  6  5  2  0
  7  1  1  0
  8 14  1  0
  9  6  1  0
 10  1  1  0
 11  8  1  0
 12  7  1  0
 13 10  2  0
 14 21  1  0
 15  1  2  0
 16  1  2  0
 17 28  1  0
 18  4  2  0
 19  3  2  0
 20 13  1  0
 21 18  1  0
 22  8  2  0
 23 12  2  0
 24  9  2  0
 25 39  1  0
 26 20  2  0
 27 20  1  0
 28 33  1  0
 29 12  1  0
 30 24  1  0
 31  5  1  0
 32 26  1  0
 33 27  2  0
 34 11  1  0
 35 11  1  0
 36 10  1  0
 37 29  1  0
 38 13  1  0
 39 35  1  0
 40 34  1  0
 41 37  1  0
 42 41  1  0
 43 31  1  0
 44 36  2  0
 45 44  1  0
 46 42  1  0
 47 42  1  0
 48 43  1  0
 38 45  2  0
 32 28  2  0
  4  9  1  0
 21 30  2  0
 40 25  1  0
M  END
>  <From>  (1) 
www.bindingDB.org

>  <BindingDB Reactant_set_id>  (1) 
50002781

>  <Ligand InChI>  (1) 
InChI=1S/C35H41N5O7S/c1-4-7-32-37-30-15-14-27(36-34(42)39-17-20-46-21-18-39)22-29(30)33(41)40(32)23-25-10-12-26(13-11-25)28-8-5-6-9-31(28)48(44,45)38-35(43)47-19-16-24(2)3/h5-6,8-15,22,24H,4,7,16-21,23H2,1-3H3,(H,36,42)(H,38,43)

>  <Ligand InChI Key>  (1) 
QLWYUNXREUGRMJ-UHFFFAOYSA-N

>  <BindingDB MonomerID>  (1) 
50282460

>  <BindingDB Ligand Name>  (1) 
CHEMBL169968::Quinazolinone Analog

>  <Target Name>  (1) 
Type-1 angiotensin II receptor

>  <Target Source Organism According to Curator or DataSource>  (1) 
Oryctolagus cuniculus

>  <Ki (nM)>  (1) 


>  <IC50 (nM)>  (1) 
 0.250000

>  <Kd (nM)>  (1) 


>  <EC50 (nM)>  (1) 


>  <kon (M-1-s-1)>  (1) 


>  <koff (s-1)>  (1) 


>  <pH>  (1) 


>  <Temp C>  (1) 


>  <Curation/DataSource>  (1) 
ChEMBL

>  <Article DOI>  (1) 
10.1016/S0960-894X(01)81126-4

>  <BindingDB Entry DOI>  (1) 
10.7270/Q2D79BBS

>  <PMID>  (1) 


>  <PubChem AID>  (1) 


>  <Patent Number>  (1) 


>  <Authors>  (1) 
Glinka, TW; de Laszlo, SE; Siegl, PK; Chang, RS; Kivlighn, SD; Schorn, TS; Faust, KA; Chen, TB; Zingaro, GJ; Lotti, VJ; Greenlee, WJ

>  <Institution>  (1) 
TBA

>  <Link to Ligand in BindingDB>  (1) 
http://www.bindingdb.org/bind/chemsearch/marvin/MolStructure.jsp?monomerid=50282460

>  <Link to Ligand-Target Pair in BindingDB>  (1) 
http://www.bindingdb.org/jsp/dbsearch/PrimarySearch_ki.jsp?energyterm=kJ/mole&tag=r21&monomerid=50282460&enzyme=Type-1+angiotensin+II+receptor&column=ki&startPg=0&Increment=50&submit=Search

>  <Ligand HET ID in PDB>  (1) 


>  <PDB ID(s) for Ligand-Target Complex>  (1) 


>  <PubChem CID of Ligand>  (1) 
44381403

>  <PubChem SID of Ligand>  (1) 
104124134

>  <ChEBI ID of Ligand>  (1) 


>  <ChEMBL ID of Ligand>  (1) 
CHEMBL169968

>  <DrugBank ID of Ligand>  (1) 


>  <IUPHAR_GRAC ID of Ligand>  (1) 


>  <KEGG ID of Ligand>  (1) 


>  <ZINC ID of Ligand>  (1) 
ZINC27989598

>  <Number of Protein Chains in Target (bigger than 1 implies a multichain complex)>  (1) 
1

>  <BindingDB Target Chain Sequence>  (1) 
MMLNSSTEDGIKRIQDDCPKAGRHNYIFVMIPTLYSIIFVVGIFGNSLAVIVIYFYMKLKTVASVFLLNLALADLCFLLTLPLWAVYTAMEYRWPFGNYLCKIASASVSFNLYASVFLLTCLSIDRYLAIVHPMKSRLRRTMLVAKVTCIIIWLLAGLASLPAIIHRNVFFIENTNITVCAFHYESQNSTLPIGLGLTKNILGFLFPFLIILTSYTLIWKALKKAYEIQKNKPRNDDIFKIIMAIVLFFFFSWVPHQIFTFLDVLIQLGVIHDCRIADIVDTAMPITICIAYFNNCLNPLFYGFLGKKFKKYFLQLLKYIPPKAKSHSNLSTKMSTLSYRPSDNVSSSSKKPVPCFEVE

>  <PDB ID(s) of Target Chain>  (1) 
6DO1,6OS0,6OS1,6OS2

>  <UniProt (SwissProt) Recommended Name of Target Chain>  (1) 
Type-1 angiotensin II receptor

>  <UniProt (SwissProt) Entry Name of Target Chain>  (1) 
AGTR1_RABIT

>  <UniProt (SwissProt) Primary ID of Target Chain>  (1) 
P34976

>  <UniProt (SwissProt) Secondary ID(s) of Target Chain>  (1) 


>  <UniProt (SwissProt) Alternative ID(s) of Target Chain>  (1) 


>  <UniProt (TrEMBL) Submitted Name of Target Chain>  (1) 


>  <UniProt (TrEMBL) Entry Name of Target Chain>  (1) 


>  <UniProt (TrEMBL) Primary ID of Target Chain>  (1) 


>  <UniProt (TrEMBL) Secondary ID(s) of Target Chain>  (1) 


>  <UniProt (TrEMBL) Alternative ID(s) of Target Chain>  (1) 


$$$$
