
     RDKit          2D

 31 34  0  0  0  0  0  0  0  0999 V2000
    0.4931    0.9233    0.0000 N   0  0  0  0  0  0  0  0  0  0  0  0
    1.8092    0.7771    0.0000 C   0  0  0  0  0  0  0  0  0  0  0  0
    1.2075    1.3370    0.0000 N   0  0  0  0  0  0  0  0  0  0  0  0
    1.4708    0.0334    0.0000 C   0  0  0  0  0  0  0  0  0  0  0  0
    5.2520    0.3593    0.0000 C   0  0  0  0  0  0  0  0  0  0  0  0
    4.4414    0.5348    0.0000 N   0  0  0  0  0  0  0  0  0  0  0  0
    4.3537    1.3495    0.0000 N   0  0  0  0  0  0  0  0  0  0  0  0
    0.6560    0.1211    0.0000 C   0  0  0  0  0  0  0  0  0  0  0  0
    5.6656    1.0738    0.0000 N   0  0  0  0  0  0  0  0  0  0  0  0
    5.1058    1.6880    0.0000 N   0  0  0  0  0  0  0  0  0  0  0  0
    5.5821   -0.3928    0.0000 C   0  0  0  0  0  0  0  0  0  0  0  0
    5.1016   -1.0654    0.0000 C   0  0  0  0  0  0  0  0  0  0  0  0
    1.8175   -0.7187    0.0000 C   0  0  0  0  0  0  0  0  0  0  0  0
    4.2785   -0.9819    0.0000 C   0  0  0  0  0  0  0  0  0  0  0  0
    2.6114    0.9986    0.0000 O   0  0  0  0  0  0  0  0  0  0  0  0
    3.7897   -1.6462    0.0000 C   0  0  0  0  0  0  0  0  0  0  0  0
    3.9401   -0.2173    0.0000 C   0  0  0  0  0  0  0  0  0  0  0  0
    2.6365   -0.8064    0.0000 C   0  0  0  0  0  0  0  0  0  0  0  0
    1.2953    2.1517    0.0000 C   0  0  0  0  0  0  0  0  0  0  0  0
    3.1211   -0.1379    0.0000 C   0  0  0  0  0  0  0  0  0  0  0  0
    2.9707   -1.5585    0.0000 C   0  0  0  0  0  0  0  0  0  0  0  0
    0.1045   -0.4888    0.0000 C   0  0  0  0  0  0  0  0  0  0  0  0
    6.4094   -0.4805    0.0000 C   0  0  0  0  0  0  0  0  0  0  0  0
    5.4317   -1.8217    0.0000 C   0  0  0  0  0  0  0  0  0  0  0  0
    2.0599    2.4902    0.0000 C   0  0  0  0  0  0  0  0  0  0  0  0
   -0.7103   -0.3134    0.0000 C   0  0  0  0  0  0  0  0  0  0  0  0
    2.1476    3.3049    0.0000 C   0  0  0  0  0  0  0  0  0  0  0  0
    6.2547   -1.9095    0.0000 C   0  0  0  0  0  0  0  0  0  0  0  0
    6.7478   -1.2326    0.0000 C   0  0  0  0  0  0  0  0  0  0  0  0
    2.9080    3.6433    0.0000 C   0  0  0  0  0  0  0  0  0  0  0  0
   -1.2618   -0.9192    0.0000 C   0  0  0  0  0  0  0  0  0  0  0  0
  2  3  1  0
  3  1  1  0
  4  8  2  0
  5 11  1  0
  6  5  1  0
  7  6  1  0
  8  1  1  0
  9  5  2  0
 10  9  1  0
 11 12  1  0
 12 14  1  0
 13  4  1  0
 14 16  2  0
 15  2  2  0
 16 21  1  0
 17 20  2  0
 18 13  1  0
 19  3  1  0
 20 18  1  0
 21 18  2  0
 22  8  1  0
 23 11  2  0
 24 12  2  0
 25 19  1  0
 26 22  1  0
 27 25  1  0
 28 24  1  0
 29 28  2  0
 30 27  1  0
 31 26  1  0
  4  2  1  0
 17 14  1  0
 23 29  1  0
  7 10  2  0
M  END
>  <From>  (1) 
www.bindingDB.org

>  <BindingDB Reactant_set_id>  (1) 
50469836

>  <Ligand InChI>  (1) 
InChI=1S/C24H28N6O/c1-3-5-15-30-24(31)21(22(27-30)8-4-2)16-17-11-13-18(14-12-17)19-9-6-7-10-20(19)23-25-28-29-26-23/h6-7,9-14,27H,3-5,8,15-16H2,1-2H3,(H,25,26,28,29)

>  <Ligand InChI Key>  (1) 
XKNVEJZGCMRAST-UHFFFAOYSA-N

>  <BindingDB MonomerID>  (1) 
50283565

>  <BindingDB Ligand Name>  (1) 
2-Butyl-5-propyl-4-[2'-(2H-tetrazol-5-yl)-biphenyl-4-ylmethyl]-2,4-dihydro-pyrazol-3-one::CHEMBL86764

>  <Target Name>  (1) 
Type-1 angiotensin II receptor B

>  <Target Source Organism According to Curator or DataSource>  (1) 
Rattus

>  <Ki (nM)>  (1) 


>  <IC50 (nM)>  (1) 
 500

>  <Kd (nM)>  (1) 


>  <EC50 (nM)>  (1) 


>  <kon (M-1-s-1)>  (1) 


>  <koff (s-1)>  (1) 


>  <pH>  (1) 


>  <Temp C>  (1) 


>  <Curation/DataSource>  (1) 
ChEMBL

>  <Article DOI>  (1) 
10.1016/S0960-894X(01)80290-0

>  <BindingDB Entry DOI>  (1) 
10.7270/Q29Z94VB

>  <PMID>  (1) 


>  <PubChem AID>  (1) 


>  <Patent Number>  (1) 


>  <Authors>  (1) 
Huang, HC; Chamberlain, TS; Olins, GM; Corpus, VM; Chen, ST; McMahon, EG; Palomo, MA; Blaine, EH; Manning, RE

>  <Institution>  (1) 
TBA

>  <Link to Ligand in BindingDB>  (1) 
http://www.bindingdb.org/bind/chemsearch/marvin/MolStructure.jsp?monomerid=50283565

>  <Link to Ligand-Target Pair in BindingDB>  (1) 
http://www.bindingdb.org/jsp/dbsearch/PrimarySearch_ki.jsp?energyterm=kJ/mole&tag=r21&monomerid=50283565&enzyme=Type-1+angiotensin+II+receptor+B&column=ki&startPg=0&Increment=50&submit=Search

>  <Ligand HET ID in PDB>  (1) 


>  <PDB ID(s) for Ligand-Target Complex>  (1) 


>  <PubChem CID of Ligand>  (1) 
91934767

>  <PubChem SID of Ligand>  (1) 
104125222

>  <ChEBI ID of Ligand>  (1) 


>  <ChEMBL ID of Ligand>  (1) 
CHEMBL86764

>  <DrugBank ID of Ligand>  (1) 


>  <IUPHAR_GRAC ID of Ligand>  (1) 


>  <KEGG ID of Ligand>  (1) 


>  <ZINC ID of Ligand>  (1) 
ZINC26576489

>  <Number of Protein Chains in Target (bigger than 1 implies a multichain complex)>  (1) 
1

>  <BindingDB Target Chain Sequence>  (1) 
MTLNSSTEDGIKRIQDDCPKAGRHNYIFVMIPTLYSIIFVVGIFGNSLVVIVIYFYMKLKTVASVFLLNLALADLCFLLTLPLWAVYTAMEYRWPFGNHLCKIASASVSFNLYASVFLLTCLSIDRYLAIVHPMKSRLRRTMLVAKVTCIIIWLMAGLASLPAVIYRNVYFIENTNITVCAFHYESQNSTLPIGLGLTKNILGFVFPFLIILTSYTLIWKALKKAYKIQKNTPRNDDIFRIIMAIVLFFFFSWVPHQIFTFLDVLIQLGIIRDCEIADIVDTAMPITICIAYFNNCLNPLFYGFLGKKFKKYFLQLLKYIPPTAKSHAGLSTKMSTLSYRPSDNMSSSAKKSASFFEVE

>  <PDB ID(s) of Target Chain>  (1) 


>  <UniProt (SwissProt) Recommended Name of Target Chain>  (1) 
Type-1 angiotensin II receptor B

>  <UniProt (SwissProt) Entry Name of Target Chain>  (1) 
AGTRB_RAT

>  <UniProt (SwissProt) Primary ID of Target Chain>  (1) 
P29089

>  <UniProt (SwissProt) Secondary ID(s) of Target Chain>  (1) 


>  <UniProt (SwissProt) Alternative ID(s) of Target Chain>  (1) 


>  <UniProt (TrEMBL) Submitted Name of Target Chain>  (1) 


>  <UniProt (TrEMBL) Entry Name of Target Chain>  (1) 


>  <UniProt (TrEMBL) Primary ID of Target Chain>  (1) 


>  <UniProt (TrEMBL) Secondary ID(s) of Target Chain>  (1) 


>  <UniProt (TrEMBL) Alternative ID(s) of Target Chain>  (1) 


$$$$
