
     RDKit          2D

 42 46  0  0  0  0  0  0  0  0999 V2000
   -0.2458   -1.6625    0.0000 N   0  0  0  0  0  0  0  0  0  0  0  0
    4.7125   -2.6042    0.0000 S   0  0  0  0  0  0  0  0  0  0  0  0
    0.5375   -1.4042    0.0000 C   0  0  0  0  0  0  0  0  0  0  0  0
   -0.2458   -0.3292    0.0000 N   0  0  0  0  0  0  0  0  0  0  0  0
    3.9875   -2.4417    0.0000 N   0  0  0  0  0  0  0  0  0  0  0  0
    3.2917   -2.8917    0.0000 C   0  0  0  0  0  0  0  0  0  0  0  0
   -0.7250   -0.9917    0.0000 C   0  0  0  0  0  0  0  0  0  0  0  0
    0.5375   -0.5792    0.0000 C   0  0  0  0  0  0  0  0  0  0  0  0
    1.2500   -1.8167    0.0000 N   0  0  0  0  0  0  0  0  0  0  0  0
    3.3292   -3.7167    0.0000 C   0  0  0  0  0  0  0  0  0  0  0  0
    2.6167   -4.1417    0.0000 N   0  0  0  0  0  0  0  0  0  0  0  0
    1.2500   -0.1667    0.0000 C   0  0  0  0  0  0  0  0  0  0  0  0
   -0.2458   -2.4875    0.0000 C   0  0  0  0  0  0  0  0  0  0  0  0
    4.0250   -3.2042    0.0000 O   0  0  0  0  0  0  0  0  0  0  0  0
    5.4125   -3.2792    0.0000 O   0  0  0  0  0  0  0  0  0  0  0  0
    5.1167   -1.7917    0.0000 C   0  0  0  0  0  0  0  0  0  0  0  0
    2.5542   -2.5167    0.0000 O   0  0  0  0  0  0  0  0  0  0  0  0
    1.9042   -3.7292    0.0000 C   0  0  0  0  0  0  0  0  0  0  0  0
    1.9667   -1.4042    0.0000 C   0  0  0  0  0  0  0  0  0  0  0  0
    1.9667   -0.5792    0.0000 C   0  0  0  0  0  0  0  0  0  0  0  0
    4.0417   -4.1292    0.0000 C   0  0  0  0  0  0  0  0  0  0  0  0
    1.8917   -2.8917    0.0000 C   0  0  0  0  0  0  0  0  0  0  0  0
    1.1792   -4.1417    0.0000 C   0  0  0  0  0  0  0  0  0  0  0  0
    0.4667   -2.8917    0.0000 C   0  0  0  0  0  0  0  0  0  0  0  0
   -1.5500   -0.9917    0.0000 C   0  0  0  0  0  0  0  0  0  0  0  0
    1.1792   -2.4792    0.0000 C   0  0  0  0  0  0  0  0  0  0  0  0
    0.4667   -3.7292    0.0000 C   0  0  0  0  0  0  0  0  0  0  0  0
    2.6167   -4.9667    0.0000 C   0  0  0  0  0  0  0  0  0  0  0  0
    1.2500    0.6583    0.0000 C   0  0  0  0  0  0  0  0  0  0  0  0
    6.0042   -2.0042    0.0000 C   0  0  0  0  0  0  0  0  0  0  0  0
    4.8375   -1.1792    0.0000 C   0  0  0  0  0  0  0  0  0  0  0  0
    2.6875   -1.8167    0.0000 C   0  0  0  0  0  0  0  0  0  0  0  0
    4.7542   -3.7167    0.0000 C   0  0  0  0  0  0  0  0  0  0  0  0
    4.0417   -4.9542    0.0000 C   0  0  0  0  0  0  0  0  0  0  0  0
   -1.9708   -0.2792    0.0000 C   0  0  0  0  0  0  0  0  0  0  0  0
    1.9042   -5.3792    0.0000 C   0  0  0  0  0  0  0  0  0  0  0  0
    5.4667   -4.1292    0.0000 C   0  0  0  0  0  0  0  0  0  0  0  0
    4.7542   -5.3667    0.0000 C   0  0  0  0  0  0  0  0  0  0  0  0
    6.4792   -1.3292    0.0000 C   0  0  0  0  0  0  0  0  0  0  0  0
    5.3042   -0.5042    0.0000 C   0  0  0  0  0  0  0  0  0  0  0  0
    5.4667   -4.9542    0.0000 C   0  0  0  0  0  0  0  0  0  0  0  0
    6.1375   -0.5792    0.0000 C   0  0  0  0  0  0  0  0  0  0  0  0
  2  5  1  0
  3  1  1  0
  4  7  2  0
  5  6  1  0
  6 10  1  0
  7  1  1  0
  8  3  2  0
  9  3  1  0
 10 11  1  0
 11 18  1  0
 12  8  1  0
 13  1  1  0
 14  2  2  0
 15  2  2  0
 16  2  1  0
 17  6  2  0
 18 23  2  0
 19  9  2  0
 20 19  1  0
 21 10  1  0
 22 26  2  0
 23 27  1  0
 24 13  1  0
 25  7  1  0
 26 24  1  0
 27 24  2  0
 28 11  1  0
 29 12  1  0
 30 16  2  0
 31 16  1  0
 32 19  1  0
 33 21  2  0
 34 21  1  0
 35 25  1  0
 36 28  1  0
 37 33  1  0
 38 34  2  0
 39 30  1  0
 40 31  2  0
 41 38  1  0
 42 40  1  0
  8  4  1  0
 22 18  1  0
 12 20  2  0
 37 41  2  0
 39 42  2  0
M  END
>  <From>  (1) 
www.bindingDB.org

>  <BindingDB Reactant_set_id>  (1) 
50062174

>  <Ligand InChI>  (1) 
InChI=1S/C33H35N5O3S/c1-5-29-35-30-23(3)21-24(4)34-32(30)38(29)22-25-17-19-27(20-18-25)37(6-2)31(26-13-9-7-10-14-26)33(39)36-42(40,41)28-15-11-8-12-16-28/h7-21,31H,5-6,22H2,1-4H3,(H,36,39)

>  <Ligand InChI Key>  (1) 
NTLHXKVLMJLWSU-UHFFFAOYSA-N

>  <BindingDB MonomerID>  (1) 
50043463

>  <BindingDB Ligand Name>  (1) 
CHEMBL337007::N-(2-{Ethyl-[4-(2-ethyl-5,7-dimethyl-imidazo[4,5-b]pyridin-3-ylmethyl)-phenyl]-amino}-2-phenyl-acetyl)-benzenesulfonamide

>  <Target Name>  (1) 
Type-1 angiotensin II receptor

>  <Target Source Organism According to Curator or DataSource>  (1) 
Oryctolagus cuniculus

>  <Ki (nM)>  (1) 


>  <IC50 (nM)>  (1) 
 0.900000

>  <Kd (nM)>  (1) 


>  <EC50 (nM)>  (1) 


>  <kon (M-1-s-1)>  (1) 


>  <koff (s-1)>  (1) 


>  <pH>  (1) 


>  <Temp C>  (1) 


>  <Curation/DataSource>  (1) 
ChEMBL

>  <Article DOI>  (1) 
10.1021/jm00078a014

>  <BindingDB Entry DOI>  (1) 
10.7270/Q22V2F6P

>  <PMID>  (1) 
8277506

>  <PubChem AID>  (1) 


>  <Patent Number>  (1) 


>  <Authors>  (1) 
Dhanoa, DS; Bagley, SW; Chang, RS; Lotti, VJ; Chen, TB; Kivlighn, SD; Zingaro, GJ; Siegl, PK; Patchett, AA; Greenlee, WJ

>  <Institution>  (1) 
Merck Research Laboratories

>  <Link to Ligand in BindingDB>  (1) 
http://www.bindingdb.org/bind/chemsearch/marvin/MolStructure.jsp?monomerid=50043463

>  <Link to Ligand-Target Pair in BindingDB>  (1) 
http://www.bindingdb.org/jsp/dbsearch/PrimarySearch_ki.jsp?energyterm=kJ/mole&tag=r21&monomerid=50043463&enzyme=Type-1+angiotensin+II+receptor&column=ki&startPg=0&Increment=50&submit=Search

>  <Ligand HET ID in PDB>  (1) 


>  <PDB ID(s) for Ligand-Target Complex>  (1) 


>  <PubChem CID of Ligand>  (1) 
192567

>  <PubChem SID of Ligand>  (1) 
103974891

>  <ChEBI ID of Ligand>  (1) 


>  <ChEMBL ID of Ligand>  (1) 
CHEMBL337007

>  <DrugBank ID of Ligand>  (1) 


>  <IUPHAR_GRAC ID of Ligand>  (1) 


>  <KEGG ID of Ligand>  (1) 


>  <ZINC ID of Ligand>  (1) 
ZINC05493183

>  <Number of Protein Chains in Target (bigger than 1 implies a multichain complex)>  (1) 
1

>  <BindingDB Target Chain Sequence>  (1) 
MMLNSSTEDGIKRIQDDCPKAGRHNYIFVMIPTLYSIIFVVGIFGNSLAVIVIYFYMKLKTVASVFLLNLALADLCFLLTLPLWAVYTAMEYRWPFGNYLCKIASASVSFNLYASVFLLTCLSIDRYLAIVHPMKSRLRRTMLVAKVTCIIIWLLAGLASLPAIIHRNVFFIENTNITVCAFHYESQNSTLPIGLGLTKNILGFLFPFLIILTSYTLIWKALKKAYEIQKNKPRNDDIFKIIMAIVLFFFFSWVPHQIFTFLDVLIQLGVIHDCRIADIVDTAMPITICIAYFNNCLNPLFYGFLGKKFKKYFLQLLKYIPPKAKSHSNLSTKMSTLSYRPSDNVSSSSKKPVPCFEVE

>  <PDB ID(s) of Target Chain>  (1) 
6DO1,6OS0,6OS1,6OS2

>  <UniProt (SwissProt) Recommended Name of Target Chain>  (1) 
Type-1 angiotensin II receptor

>  <UniProt (SwissProt) Entry Name of Target Chain>  (1) 
AGTR1_RABIT

>  <UniProt (SwissProt) Primary ID of Target Chain>  (1) 
P34976

>  <UniProt (SwissProt) Secondary ID(s) of Target Chain>  (1) 


>  <UniProt (SwissProt) Alternative ID(s) of Target Chain>  (1) 


>  <UniProt (TrEMBL) Submitted Name of Target Chain>  (1) 


>  <UniProt (TrEMBL) Entry Name of Target Chain>  (1) 


>  <UniProt (TrEMBL) Primary ID of Target Chain>  (1) 


>  <UniProt (TrEMBL) Secondary ID(s) of Target Chain>  (1) 


>  <UniProt (TrEMBL) Alternative ID(s) of Target Chain>  (1) 


$$$$
