
     RDKit          2D

 38 42  0  0  0  0  0  0  0  0999 V2000
    6.7542   -1.1292    0.0000 N   0  0  0  0  0  0  0  0  0  0  0  0
    6.0375   -1.5417    0.0000 C   0  0  0  0  0  0  0  0  0  0  0  0
    5.3167   -1.1250    0.0000 C   0  0  0  0  0  0  0  0  0  0  0  0
    6.7542   -0.3000    0.0000 C   0  0  0  0  0  0  0  0  0  0  0  0
    6.0375    0.1208    0.0000 N   0  0  0  0  0  0  0  0  0  0  0  0
    8.8875   -4.8292    0.0000 C   0  0  0  0  0  0  0  0  0  0  0  0
    9.7792   -3.8375    0.0000 N   0  0  0  0  0  0  0  0  0  0  0  0
    8.9667   -4.0042    0.0000 N   0  0  0  0  0  0  0  0  0  0  0  0
   10.1917   -4.5500    0.0000 N   0  0  0  0  0  0  0  0  0  0  0  0
    5.3250   -0.3000    0.0000 C   0  0  0  0  0  0  0  0  0  0  0  0
    9.6417   -5.1625    0.0000 N   0  0  0  0  0  0  0  0  0  0  0  0
    4.6042   -1.5417    0.0000 C   0  0  0  0  0  0  0  0  0  0  0  0
    8.1750   -5.2417    0.0000 C   0  0  0  0  0  0  0  0  0  0  0  0
    7.4625   -4.8375    0.0000 C   0  0  0  0  0  0  0  0  0  0  0  0
    3.8917   -1.1292    0.0000 C   0  0  0  0  0  0  0  0  0  0  0  0
    7.4667   -1.5417    0.0000 C   0  0  0  0  0  0  0  0  0  0  0  0
    6.0292   -2.3667    0.0000 O   0  0  0  0  0  0  0  0  0  0  0  0
    3.1792   -1.5417    0.0000 C   0  0  0  0  0  0  0  0  0  0  0  0
    7.4625   -4.0042    0.0000 C   0  0  0  0  0  0  0  0  0  0  0  0
    4.6042    0.1125    0.0000 C   0  0  0  0  0  0  0  0  0  0  0  0
    3.8917   -0.3042    0.0000 C   0  0  0  0  0  0  0  0  0  0  0  0
    8.1792   -3.6000    0.0000 C   0  0  0  0  0  0  0  0  0  0  0  0
    6.7417   -3.6000    0.0000 C   0  0  0  0  0  0  0  0  0  0  0  0
    7.4667   -2.3667    0.0000 C   0  0  0  0  0  0  0  0  0  0  0  0
    7.4667    0.1083    0.0000 C   0  0  0  0  0  0  0  0  0  0  0  0
    6.7500   -2.7750    0.0000 C   0  0  0  0  0  0  0  0  0  0  0  0
    8.1792   -2.7750    0.0000 C   0  0  0  0  0  0  0  0  0  0  0  0
    2.4667   -1.1292    0.0000 O   0  0  0  0  0  0  0  0  0  0  0  0
    8.1750   -6.0667    0.0000 C   0  0  0  0  0  0  0  0  0  0  0  0
    6.7417   -5.2417    0.0000 C   0  0  0  0  0  0  0  0  0  0  0  0
    3.1792   -2.3667    0.0000 C   0  0  0  0  0  0  0  0  0  0  0  0
    3.1750   -0.7167    0.0000 C   0  0  0  0  0  0  0  0  0  0  0  0
    1.7500   -1.5417    0.0000 C   0  0  0  0  0  0  0  0  0  0  0  0
    8.1792   -0.3042    0.0000 C   0  0  0  0  0  0  0  0  0  0  0  0
    8.9000    0.1083    0.0000 C   0  0  0  0  0  0  0  0  0  0  0  0
    7.4542   -6.4875    0.0000 C   0  0  0  0  0  0  0  0  0  0  0  0
    6.7417   -6.0667    0.0000 C   0  0  0  0  0  0  0  0  0  0  0  0
    9.6125   -0.3042    0.0000 C   0  0  0  0  0  0  0  0  0  0  0  0
  2  1  1  0
  3  2  1  0
  4  1  1  0
  5  4  2  0
  6 13  1  0
  7  8  1  0
  8  6  1  0
  9 11  1  0
 10  5  1  0
 11  6  2  0
 12  3  2  0
 13 14  1  0
 14 19  1  0
 15 12  1  0
 16  1  1  0
 17  2  2  0
 18 15  1  0
 19 22  2  0
 20 10  2  0
 21 20  1  0
 22 27  1  0
 23 26  2  0
 24 16  1  0
 25  4  1  0
 26 24  1  0
 27 24  2  0
 28 18  1  0
 29 13  2  0
 30 14  2  0
 31 18  1  0
 32 18  1  0
 33 28  1  0
 34 25  1  0
 35 34  1  0
 36 37  2  0
 37 30  1  0
 38 35  1  0
 10  3  1  0
 23 19  1  0
 21 15  2  0
 29 36  1  0
  9  7  2  0
M  END
>  <From>  (1) 
www.bindingDB.org

>  <BindingDB Reactant_set_id>  (1) 
50468376

>  <Ligand InChI>  (1) 
InChI=1S/C30H32N6O2/c1-5-6-11-27-31-26-17-16-22(30(2,3)38-4)18-25(26)29(37)36(27)19-20-12-14-21(15-13-20)23-9-7-8-10-24(23)28-32-34-35-33-28/h7-10,12-18H,5-6,11,19H2,1-4H3,(H,32,33,34,35)

>  <Ligand InChI Key>  (1) 
XZCUIMYYMKTCBA-UHFFFAOYSA-N

>  <BindingDB MonomerID>  (1) 
50049207

>  <BindingDB Ligand Name>  (1) 
2-Butyl-6-(1-methoxy-1-methyl-ethyl)-3-[2'-(1H-tetrazol-5-yl)-biphenyl-4-ylmethyl]-3H-quinazolin-4-one::CHEMBL275875::CL-329167

>  <Target Name>  (1) 
Type-1 angiotensin II receptor

>  <Target Source Organism According to Curator or DataSource>  (1) 
Bos taurus

>  <Ki (nM)>  (1) 


>  <IC50 (nM)>  (1) 
 31

>  <Kd (nM)>  (1) 


>  <EC50 (nM)>  (1) 


>  <kon (M-1-s-1)>  (1) 


>  <koff (s-1)>  (1) 


>  <pH>  (1) 


>  <Temp C>  (1) 


>  <Curation/DataSource>  (1) 
ChEMBL

>  <Article DOI>  (1) 
10.1016/S0960-894X(00)80365-0

>  <BindingDB Entry DOI>  (1) 
10.7270/Q2JS9QB3

>  <PMID>  (1) 


>  <PubChem AID>  (1) 


>  <Patent Number>  (1) 


>  <Authors>  (1) 
Levin, JI; Chan, PS; Coupet, J; Bailey, TK; Vice, G; Thibault, L; F., L; Venkatesan, AM; Cobuzzi, A

>  <Institution>  (1) 
TBA

>  <Link to Ligand in BindingDB>  (1) 
http://www.bindingdb.org/bind/chemsearch/marvin/MolStructure.jsp?monomerid=50049207

>  <Link to Ligand-Target Pair in BindingDB>  (1) 
http://www.bindingdb.org/jsp/dbsearch/PrimarySearch_ki.jsp?energyterm=kJ/mole&tag=r21&monomerid=50049207&enzyme=Type-1+angiotensin+II+receptor&column=ki&startPg=0&Increment=50&submit=Search

>  <Ligand HET ID in PDB>  (1) 


>  <PDB ID(s) for Ligand-Target Complex>  (1) 


>  <PubChem CID of Ligand>  (1) 
6918269

>  <PubChem SID of Ligand>  (1) 
103979561

>  <ChEBI ID of Ligand>  (1) 


>  <ChEMBL ID of Ligand>  (1) 
CHEMBL275875

>  <DrugBank ID of Ligand>  (1) 


>  <IUPHAR_GRAC ID of Ligand>  (1) 


>  <KEGG ID of Ligand>  (1) 


>  <ZINC ID of Ligand>  (1) 
ZINC01886637

>  <Number of Protein Chains in Target (bigger than 1 implies a multichain complex)>  (1) 
1

>  <BindingDB Target Chain Sequence>  (1) 
MILNSSTEDGIKRIQDDCPKAGRHNYIFIMIPTLYSIIFVVGIFGNSLVVIVIYFYMKLKTVASVFLLNLALADLCFLLTLPLWAVYTAMEYRWPFGNYLCKIASASVSFNLYASVFLLTCLSIDRYLAIVHPMKSRLRRTMLVAKVTCIIIWLLAGLASLPTIIHRNVFFIENTNITVCAFHYESQNSTLPVGLGLTKNILGFLFPFLIILTSYTLIWKTLKKAYEIQKNKPRKDDIFKIILAIVLFFFFSWVPHQIFTFMDVLIQLGLIRDCKIEDIVDTAMPITICLAYFNNCLNPLFYGFLGKKFKKYFLQLLKYIPPKAKSHSNLSTKMSTLSYRPSENGNSSTKKPAPCIEVE

>  <PDB ID(s) of Target Chain>  (1) 


>  <UniProt (SwissProt) Recommended Name of Target Chain>  (1) 
Type-1 angiotensin II receptor

>  <UniProt (SwissProt) Entry Name of Target Chain>  (1) 
AGTR1_BOVIN

>  <UniProt (SwissProt) Primary ID of Target Chain>  (1) 
P25104

>  <UniProt (SwissProt) Secondary ID(s) of Target Chain>  (1) 


>  <UniProt (SwissProt) Alternative ID(s) of Target Chain>  (1) 


>  <UniProt (TrEMBL) Submitted Name of Target Chain>  (1) 


>  <UniProt (TrEMBL) Entry Name of Target Chain>  (1) 


>  <UniProt (TrEMBL) Primary ID of Target Chain>  (1) 


>  <UniProt (TrEMBL) Secondary ID(s) of Target Chain>  (1) 


>  <UniProt (TrEMBL) Alternative ID(s) of Target Chain>  (1) 


$$$$
