
     RDKit          2D

 36 40  0  0  0  0  0  0  0  0999 V2000
    2.0337   -7.2066    0.0000 N   0  0  0  0  0  0  0  0  0  0  0  0
    1.5467   -6.5364    0.0000 C   0  0  0  0  0  0  0  0  0  0  0  0
    2.0279   -5.8662    0.0000 N   0  0  0  0  0  0  0  0  0  0  0  0
    2.8243   -6.9489    0.0000 C   0  0  0  0  0  0  0  0  0  0  0  0
    5.3334  -10.3517    0.0000 C   0  0  0  0  0  0  0  0  0  0  0  0
    3.5289   -7.3613    0.0000 C   0  0  0  0  0  0  0  0  0  0  0  0
    5.2646   -9.0112    0.0000 N   0  0  0  0  0  0  0  0  0  0  0  0
    4.8178   -9.6986    0.0000 N   0  0  0  0  0  0  0  0  0  0  0  0
    6.0666   -9.2346    0.0000 N   0  0  0  0  0  0  0  0  0  0  0  0
    2.8185   -6.1239    0.0000 C   0  0  0  0  0  0  0  0  0  0  0  0
    6.1010  -10.0595    0.0000 N   0  0  0  0  0  0  0  0  0  0  0  0
    5.1100  -11.1422    0.0000 C   0  0  0  0  0  0  0  0  0  0  0  0
    3.5575   -8.0602    0.0000 C   0  0  0  0  0  0  0  0  0  0  0  0
    4.3136  -11.3484    0.0000 C   0  0  0  0  0  0  0  0  0  0  0  0
    2.0165   -8.9768    0.0000 C   0  0  0  0  0  0  0  0  0  0  0  0
    3.7351  -10.7583    0.0000 C   0  0  0  0  0  0  0  0  0  0  0  0
    2.9102   -8.4440    0.0000 O   0  0  0  0  0  0  0  0  0  0  0  0
    0.7218   -6.5478    0.0000 O   0  0  0  0  0  0  0  0  0  0  0  0
    2.9274  -10.9532    0.0000 C   0  0  0  0  0  0  0  0  0  0  0  0
    4.0445  -10.0251    0.0000 C   0  0  0  0  0  0  0  0  0  0  0  0
    2.5951   -9.5725    0.0000 C   0  0  0  0  0  0  0  0  0  0  0  0
    4.2507   -6.9489    0.0000 C   0  0  0  0  0  0  0  0  0  0  0  0
    4.2621   -8.3351    0.0000 O   0  0  0  0  0  0  0  0  0  0  0  0
    2.3602  -10.3688    0.0000 C   0  0  0  0  0  0  0  0  0  0  0  0
    3.3914   -9.3721    0.0000 C   0  0  0  0  0  0  0  0  0  0  0  0
    3.5289   -5.7115    0.0000 C   0  0  0  0  0  0  0  0  0  0  0  0
    5.6885  -11.7265    0.0000 C   0  0  0  0  0  0  0  0  0  0  0  0
    4.0902  -12.1390    0.0000 C   0  0  0  0  0  0  0  0  0  0  0  0
    4.2507   -6.1239    0.0000 C   0  0  0  0  0  0  0  0  0  0  0  0
    0.2979   -5.8318    0.0000 C   0  0  0  0  0  0  0  0  0  0  0  0
    4.8522   -7.8597    0.0000 C   0  0  0  0  0  0  0  0  0  0  0  0
   -0.5270   -5.8432    0.0000 C   0  0  0  0  0  0  0  0  0  0  0  0
    5.4651  -12.5343    0.0000 C   0  0  0  0  0  0  0  0  0  0  0  0
    4.6631  -12.7347    0.0000 C   0  0  0  0  0  0  0  0  0  0  0  0
    5.5568   -8.1347    0.0000 C   0  0  0  0  0  0  0  0  0  0  0  0
   -0.9394   -5.1272    0.0000 C   0  0  0  0  0  0  0  0  0  0  0  0
  2  1  1  0
  3  2  2  0
  4  1  1  0
  5 12  1  0
  6  4  2  0
  7  8  1  0
  8  5  2  0
  9 11  1  0
 10  4  1  0
 11  5  1  0
 12 14  1  0
 13  6  1  0
 14 16  1  0
 15  1  1  0
 16 20  2  0
 17 13  2  0
 18  2  1  0
 19 24  2  0
 20 25  1  0
 21 15  1  0
 22  6  1  0
 23 13  1  0
 24 21  1  0
 25 21  2  0
 26 10  2  0
 27 12  2  0
 28 14  2  0
 29 26  1  0
 30 18  1  0
 31 23  1  0
 32 30  1  0
 33 34  2  0
 34 28  1  0
 35 31  1  0
 36 32  1  0
 10  3  1  0
 19 16  1  0
 22 29  2  0
 33 27  1  0
  9  7  2  0
M  END
>  <From>  (1) 
www.bindingDB.org

>  <BindingDB Reactant_set_id>  (1) 
50764796

>  <Ligand InChI>  (1) 
InChI=1S/C27H26N6O3/c1-3-16-36-27-28-23-11-7-10-22(26(34)35-4-2)24(23)33(27)17-18-12-14-19(15-13-18)20-8-5-6-9-21(20)25-29-31-32-30-25/h5-15H,3-4,16-17H2,1-2H3,(H,29,30,31,32)

>  <Ligand InChI Key>  (1) 
DRYZNZVQHCFGSD-UHFFFAOYSA-N

>  <BindingDB MonomerID>  (1) 
50044394

>  <BindingDB Ligand Name>  (1) 
2-Propoxy-3-[2'-(1H-tetrazol-5-yl)-biphenyl-4-ylmethyl]-3H-benzoimidazole-4-carboxylic acid ethyl ester::CHEMBL302815

>  <Target Name>  (1) 
Type-1 angiotensin II receptor

>  <Target Source Organism According to Curator or DataSource>  (1) 
Bos taurus

>  <Ki (nM)>  (1) 


>  <IC50 (nM)>  (1) 
 1000

>  <Kd (nM)>  (1) 


>  <EC50 (nM)>  (1) 


>  <kon (M-1-s-1)>  (1) 


>  <koff (s-1)>  (1) 


>  <pH>  (1) 


>  <Temp C>  (1) 


>  <Curation/DataSource>  (1) 
ChEMBL

>  <Article DOI>  (1) 
10.1021/jm00067a016

>  <BindingDB Entry DOI>  (1) 
10.7270/Q20Z73X8

>  <PMID>  (1) 
8340921

>  <PubChem AID>  (1) 


>  <Patent Number>  (1) 


>  <Authors>  (1) 
Kubo, K; Kohara, Y; Imamiya, E; Sugiura, Y; Inada, Y; Furukawa, Y; Nishikawa, K; Naka, T

>  <Institution>  (1) 
Takeda Chemical Industries, Ltd

>  <Link to Ligand in BindingDB>  (1) 
http://www.bindingdb.org/bind/chemsearch/marvin/MolStructure.jsp?monomerid=50044394

>  <Link to Ligand-Target Pair in BindingDB>  (1) 
http://www.bindingdb.org/jsp/dbsearch/PrimarySearch_ki.jsp?energyterm=kJ/mole&tag=r21&monomerid=50044394&enzyme=Type-1+angiotensin+II+receptor&column=ki&startPg=0&Increment=50&submit=Search

>  <Ligand HET ID in PDB>  (1) 


>  <PDB ID(s) for Ligand-Target Complex>  (1) 


>  <PubChem CID of Ligand>  (1) 
15654731

>  <PubChem SID of Ligand>  (1) 
103975648

>  <ChEBI ID of Ligand>  (1) 


>  <ChEMBL ID of Ligand>  (1) 
CHEMBL302815

>  <DrugBank ID of Ligand>  (1) 


>  <IUPHAR_GRAC ID of Ligand>  (1) 


>  <KEGG ID of Ligand>  (1) 


>  <ZINC ID of Ligand>  (1) 
ZINC01555096

>  <Number of Protein Chains in Target (bigger than 1 implies a multichain complex)>  (1) 
1

>  <BindingDB Target Chain Sequence>  (1) 
MILNSSTEDGIKRIQDDCPKAGRHNYIFIMIPTLYSIIFVVGIFGNSLVVIVIYFYMKLKTVASVFLLNLALADLCFLLTLPLWAVYTAMEYRWPFGNYLCKIASASVSFNLYASVFLLTCLSIDRYLAIVHPMKSRLRRTMLVAKVTCIIIWLLAGLASLPTIIHRNVFFIENTNITVCAFHYESQNSTLPVGLGLTKNILGFLFPFLIILTSYTLIWKTLKKAYEIQKNKPRKDDIFKIILAIVLFFFFSWVPHQIFTFMDVLIQLGLIRDCKIEDIVDTAMPITICLAYFNNCLNPLFYGFLGKKFKKYFLQLLKYIPPKAKSHSNLSTKMSTLSYRPSENGNSSTKKPAPCIEVE

>  <PDB ID(s) of Target Chain>  (1) 


>  <UniProt (SwissProt) Recommended Name of Target Chain>  (1) 
Type-1 angiotensin II receptor

>  <UniProt (SwissProt) Entry Name of Target Chain>  (1) 
AGTR1_BOVIN

>  <UniProt (SwissProt) Primary ID of Target Chain>  (1) 
P25104

>  <UniProt (SwissProt) Secondary ID(s) of Target Chain>  (1) 


>  <UniProt (SwissProt) Alternative ID(s) of Target Chain>  (1) 


>  <UniProt (TrEMBL) Submitted Name of Target Chain>  (1) 


>  <UniProt (TrEMBL) Entry Name of Target Chain>  (1) 


>  <UniProt (TrEMBL) Primary ID of Target Chain>  (1) 


>  <UniProt (TrEMBL) Secondary ID(s) of Target Chain>  (1) 


>  <UniProt (TrEMBL) Alternative ID(s) of Target Chain>  (1) 


$$$$
