
     RDKit          2D

 41 44  0  0  1  0  0  0  0  0999 V2000
    6.7400   -2.3830    0.0000 N   0  0  0  0  0  0  0  0  0  0  0  0
    6.3143   -3.6475    0.0000 N   0  0  0  0  0  0  0  0  0  0  0  0
    7.3993   -2.8713    0.0000 C   0  0  0  0  0  0  0  0  0  0  0  0
    2.0199    0.4382    0.0000 N   0  0  0  0  0  0  0  0  0  0  0  0
    7.1406   -3.6601    0.0000 C   0  0  0  0  0  0  0  0  0  0  0  0
    6.0639   -2.8588    0.0000 C   0  0  0  0  0  0  0  0  0  0  0  0
    2.6918    0.9223    0.0000 C   0  0  0  0  0  0  0  0  0  0  0  0
    2.0199   -1.5775    0.0000 C   0  0  0  0  0  0  0  0  0  0  0  0
    2.7336   -1.9907    0.0000 C   0  0  0  0  0  0  0  0  0  0  0  0
    8.1881   -2.6209    0.0000 C   0  0  0  0  0  0  0  0  0  0  0  0
    3.4723    0.6719    0.0000 C   0  0  0  0  0  0  0  0  0  0  0  0
    3.4472   -1.5775    0.0000 N   0  0  0  0  0  0  0  0  0  0  0  0
    1.3063   -1.9907    0.0000 C   0  0  0  0  0  0  0  0  0  0  0  0
    0.5926   -1.5775    0.0000 C   0  0  0  0  0  0  0  0  0  0  0  0
    8.7933   -3.1843    0.0000 C   0  0  0  0  0  0  0  0  0  0  0  0
    1.3522    0.9223    0.0000 C   0  0  0  0  0  0  0  0  0  0  0  0
    6.7400   -1.5567    0.0000 C   0  0  0  0  0  0  0  0  0  0  0  0
    0.5050   -0.7429    0.0000 S   0  0  0  0  0  0  0  0  0  0  0  0
    2.4331    1.7110    0.0000 C   0  0  0  0  0  0  0  0  0  0  0  0
    1.6068    1.7110    0.0000 C   0  0  0  0  0  0  0  0  0  0  0  0
    2.7336   -2.8170    0.0000 O   0  0  0  0  0  0  0  0  0  0  0  0
   -0.3005   -0.5801    0.0000 C   0  0  0  0  0  0  0  0  0  0  0  0
    4.0940    1.2228    0.0000 O   0  0  0  0  0  0  0  0  0  0  0  0
   -0.1628   -1.9073    0.0000 C   0  0  0  0  0  0  0  0  0  0  0  0
    7.6164   -4.3236    0.0000 Cl  0  0  0  0  0  0  0  0  0  0  0  0
   -0.7136   -1.3063    0.0000 C   0  0  0  0  0  0  0  0  0  0  0  0
    9.5903   -2.9339    0.0000 O   0  0  0  0  0  0  0  0  0  0  0  0
    4.2735   -1.5692    0.0000 C   0  0  0  0  0  0  0  0  0  0  0  0
    5.9137   -1.5650    0.0000 C   0  0  0  0  0  0  0  0  0  0  0  0
    3.6475   -0.1419    0.0000 O   0  0  0  0  0  0  0  0  0  0  0  0
    5.2835   -2.6042    0.0000 C   0  0  0  0  0  0  0  0  0  0  0  0
    8.6180   -3.9939    0.0000 O   0  0  0  0  0  0  0  0  0  0  0  0
    4.6867   -2.2829    0.0000 C   0  0  0  0  0  0  0  0  0  0  0  0
    4.6742   -0.8556    0.0000 C   0  0  0  0  0  0  0  0  0  0  0  0
    5.5005   -0.8514    0.0000 C   0  0  0  0  0  0  0  0  0  0  0  0
    5.5088   -2.2786    0.0000 C   0  0  0  0  0  0  0  0  0  0  0  0
    4.4363   -0.3923    0.0000 C   0  0  0  0  0  0  0  0  0  0  0  0
    9.3316   -4.4070    0.0000 C   0  0  0  0  0  0  0  0  0  0  0  0
    4.6617   -3.1467    0.0000 C   0  0  0  0  0  0  0  0  0  0  0  0
    3.8812   -2.8838    0.0000 C   0  0  0  0  0  0  0  0  0  0  0  0
    3.2594   -3.4347    0.0000 C   0  0  0  0  0  0  0  0  0  0  0  0
  2  6  2  0
  3  1  1  0
  8  4  1  0
  5  3  2  0
  6  1  1  0
  7  4  1  0
  8  9  1  0
  9 12  1  0
 10  3  1  0
 11  7  1  0
 12 28  1  0
  8 13  1  6
 14 13  1  0
 15 10  1  0
 16  4  1  0
 17  1  1  0
 18 14  1  0
 19  7  2  0
 20 16  2  0
 21  9  2  0
 22 18  1  0
 23 11  2  0
 24 14  2  0
 25  5  1  0
 26 24  1  0
 27 15  2  0
 28 33  2  0
 29 17  1  0
 30 11  1  0
 31  6  1  0
 32 15  1  0
 33 36  1  0
 34 35  2  0
 35 29  1  0
 36 29  2  0
 37 30  1  0
 38 32  1  0
 39 31  1  0
 40 39  1  0
 41 40  1  0
  2  5  1  0
 34 28  1  0
 19 20  1  0
 22 26  2  0
M  END
>  <From>  (1) 
www.bindingDB.org

>  <BindingDB Reactant_set_id>  (1) 
50077593

>  <Ligand InChI>  (1) 
InChI=1S/C30H33ClN4O5S/c1-4-5-10-26-33-28(31)24(18-27(36)39-2)35(26)19-20-11-13-21(14-12-20)32-29(37)25(17-22-8-7-16-41-22)34-15-6-9-23(34)30(38)40-3/h6-9,11-16,25H,4-5,10,17-19H2,1-3H3,(H,32,37)/t25-/m0/s1

>  <Ligand InChI Key>  (1) 
ZIKMCDSIDWRZRJ-VWLOTQADSA-N

>  <BindingDB MonomerID>  (1) 
50047947

>  <BindingDB Ligand Name>  (1) 
1-{1-[4-(2-Butyl-4-chloro-5-methoxycarbonylmethyl-imidazol-1-ylmethyl)-phenylcarbamoyl]-2-thiophen-2-yl-ethyl}-1H-pyrrole-2-carboxylic acid methyl ester::CHEMBL288753

>  <Target Name>  (1) 
Type-1 angiotensin II receptor B

>  <Target Source Organism According to Curator or DataSource>  (1) 
Rattus

>  <Ki (nM)>  (1) 


>  <IC50 (nM)>  (1) 
 800

>  <Kd (nM)>  (1) 


>  <EC50 (nM)>  (1) 


>  <kon (M-1-s-1)>  (1) 


>  <koff (s-1)>  (1) 


>  <pH>  (1) 


>  <Temp C>  (1) 


>  <Curation/DataSource>  (1) 
ChEMBL

>  <Article DOI>  (1) 
10.1021/jm00064a007

>  <BindingDB Entry DOI>  (1) 
10.7270/Q28W3CCP

>  <PMID>  (1) 
8510101

>  <PubChem AID>  (1) 


>  <Patent Number>  (1) 


>  <Authors>  (1) 
Sircar, I; Winters, RT; Quin, J; Lu, GH; Major, TC; Panek, RL

>  <Institution>  (1) 
Warner-Lambert Company

>  <Link to Ligand in BindingDB>  (1) 
http://www.bindingdb.org/bind/chemsearch/marvin/MolStructure.jsp?monomerid=50047947

>  <Link to Ligand-Target Pair in BindingDB>  (1) 
http://www.bindingdb.org/jsp/dbsearch/PrimarySearch_ki.jsp?energyterm=kJ/mole&tag=r21&monomerid=50047947&enzyme=Type-1+angiotensin+II+receptor+B&column=ki&startPg=0&Increment=50&submit=Search

>  <Ligand HET ID in PDB>  (1) 


>  <PDB ID(s) for Ligand-Target Complex>  (1) 


>  <PubChem CID of Ligand>  (1) 
44293697

>  <PubChem SID of Ligand>  (1) 
103978511

>  <ChEBI ID of Ligand>  (1) 


>  <ChEMBL ID of Ligand>  (1) 
CHEMBL288753

>  <DrugBank ID of Ligand>  (1) 


>  <IUPHAR_GRAC ID of Ligand>  (1) 


>  <KEGG ID of Ligand>  (1) 


>  <ZINC ID of Ligand>  (1) 
ZINC29467072

>  <Number of Protein Chains in Target (bigger than 1 implies a multichain complex)>  (1) 
1

>  <BindingDB Target Chain Sequence>  (1) 
MTLNSSTEDGIKRIQDDCPKAGRHNYIFVMIPTLYSIIFVVGIFGNSLVVIVIYFYMKLKTVASVFLLNLALADLCFLLTLPLWAVYTAMEYRWPFGNHLCKIASASVSFNLYASVFLLTCLSIDRYLAIVHPMKSRLRRTMLVAKVTCIIIWLMAGLASLPAVIYRNVYFIENTNITVCAFHYESQNSTLPIGLGLTKNILGFVFPFLIILTSYTLIWKALKKAYKIQKNTPRNDDIFRIIMAIVLFFFFSWVPHQIFTFLDVLIQLGIIRDCEIADIVDTAMPITICIAYFNNCLNPLFYGFLGKKFKKYFLQLLKYIPPTAKSHAGLSTKMSTLSYRPSDNMSSSAKKSASFFEVE

>  <PDB ID(s) of Target Chain>  (1) 


>  <UniProt (SwissProt) Recommended Name of Target Chain>  (1) 
Type-1 angiotensin II receptor B

>  <UniProt (SwissProt) Entry Name of Target Chain>  (1) 
AGTRB_RAT

>  <UniProt (SwissProt) Primary ID of Target Chain>  (1) 
P29089

>  <UniProt (SwissProt) Secondary ID(s) of Target Chain>  (1) 


>  <UniProt (SwissProt) Alternative ID(s) of Target Chain>  (1) 


>  <UniProt (TrEMBL) Submitted Name of Target Chain>  (1) 


>  <UniProt (TrEMBL) Entry Name of Target Chain>  (1) 


>  <UniProt (TrEMBL) Primary ID of Target Chain>  (1) 


>  <UniProt (TrEMBL) Secondary ID(s) of Target Chain>  (1) 


>  <UniProt (TrEMBL) Alternative ID(s) of Target Chain>  (1) 


$$$$
