
     RDKit          2D

 29 32  0  0  0  0  0  0  0  0999 V2000
    4.9439    1.1149    0.0000 N   0  0  0  0  0  0  0  0  0  0  0  0
    4.6943    1.9060    0.0000 C   0  0  0  0  0  0  0  0  0  0  0  0
    3.8650    1.9120    0.0000 C   0  0  0  0  0  0  0  0  0  0  0  0
    3.6029    1.1255    0.0000 N   0  0  0  0  0  0  0  0  0  0  0  0
    4.2699    0.6333    0.0000 C   0  0  0  0  0  0  0  0  0  0  0  0
    4.2637   -0.1917    0.0000 C   0  0  0  0  0  0  0  0  0  0  0  0
    3.5461   -0.5988    0.0000 O   0  0  0  0  0  0  0  0  0  0  0  0
    5.6562    0.6986    0.0000 C   0  0  0  0  0  0  0  0  0  0  0  0
    5.6518   -0.1264    0.0000 C   0  0  0  0  0  0  0  0  0  0  0  0
    4.9357   -0.5308    0.0000 C   0  0  0  0  0  0  0  0  0  0  0  0
    4.9309   -1.3550    0.0000 C   0  0  0  0  0  0  0  0  0  0  0  0
    5.6437   -1.7722    0.0000 C   0  0  0  0  0  0  0  0  0  0  0  0
    6.3628   -1.3591    0.0000 C   0  0  0  0  0  0  0  0  0  0  0  0
    6.3640   -0.5362    0.0000 C   0  0  0  0  0  0  0  0  0  0  0  0
    5.6414   -2.5926    0.0000 C   0  0  0  0  0  0  0  0  0  0  0  0
    4.9237   -3.0016    0.0000 C   0  0  0  0  0  0  0  0  0  0  0  0
    4.9200   -3.8259    0.0000 C   0  0  0  0  0  0  0  0  0  0  0  0
    5.6333   -4.2421    0.0000 C   0  0  0  0  0  0  0  0  0  0  0  0
    6.3518   -3.8280    0.0000 C   0  0  0  0  0  0  0  0  0  0  0  0
    6.3520   -3.0051    0.0000 C   0  0  0  0  0  0  0  0  0  0  0  0
    7.0667   -2.5905    0.0000 C   0  0  0  0  0  0  0  0  0  0  0  0
    7.8520   -2.8431    0.0000 N   0  0  0  0  0  0  0  0  0  0  0  0
    8.3350   -2.1742    0.0000 N   0  0  0  0  0  0  0  0  0  0  0  0
    7.8480   -1.5081    0.0000 N   0  0  0  0  0  0  0  0  0  0  0  0
    7.0642   -1.7656    0.0000 N   0  0  0  0  0  0  0  0  0  0  0  0
    5.1100    2.6186    0.0000 C   0  0  0  0  0  0  0  0  0  0  0  0
    5.9350    2.6148    0.0000 C   0  0  0  0  0  0  0  0  0  0  0  0
    6.3508    3.3274    0.0000 C   0  0  0  0  0  0  0  0  0  0  0  0
    7.1758    3.3236    0.0000 C   0  0  0  0  0  0  0  0  0  0  0  0
 14  9  1  0
  6  7  1  0
  2  3  2  0
 15 16  2  0
  1  8  1  0
 16 17  1  0
  3  4  1  0
 17 18  2  0
  8  9  1  0
 18 19  1  0
  4  5  2  0
 19 20  2  0
 20 15  1  0
 12 15  1  0
 21 22  1  0
  9 10  2  0
  5  1  1  0
 10 11  1  0
  1  2  1  0
 11 12  2  0
 22 23  1  0
 23 24  2  0
 24 25  1  0
 25 21  2  0
 20 21  1  0
  5  6  1  0
  2 26  1  0
 12 13  1  0
 26 27  1  0
 27 28  1  0
 13 14  2  0
 28 29  1  0
M  END
>  <From>  (1) 
www.bindingDB.org

>  <BindingDB Reactant_set_id>  (1) 
50949590

>  <Ligand InChI>  (1) 
InChI=1S/C22H24N6O/c1-2-3-6-18-13-23-21(15-29)28(18)14-16-9-11-17(12-10-16)19-7-4-5-8-20(19)22-24-26-27-25-22/h4-5,7-13,29H,2-3,6,14-15H2,1H3,(H,24,25,26,27)

>  <Ligand InChI Key>  (1) 
LKERVYLDWUXQFG-UHFFFAOYSA-N

>  <BindingDB MonomerID>  (1) 
50389541

>  <BindingDB Ligand Name>  (1) 
CHEMBL2063979

>  <Target Name>  (1) 
Type-1 angiotensin II receptor

>  <Target Source Organism According to Curator or DataSource>  (1) 
Homo sapiens

>  <Ki (nM)>  (1) 


>  <IC50 (nM)>  (1) 
 30

>  <Kd (nM)>  (1) 


>  <EC50 (nM)>  (1) 


>  <kon (M-1-s-1)>  (1) 


>  <koff (s-1)>  (1) 


>  <pH>  (1) 


>  <Temp C>  (1) 


>  <Curation/DataSource>  (1) 
ChEMBL

>  <Article DOI>  (1) 
10.1016/j.ejmech.2012.07.040

>  <BindingDB Entry DOI>  (1) 
10.7270/Q23B617T

>  <PMID>  (1) 
22889560

>  <PubChem AID>  (1) 


>  <Patent Number>  (1) 


>  <Authors>  (1) 
Agelis, G; Resvani, A; Durdagi, S; Spyridaki, K; Tumova, T; Slaninova, J; Giannopoulos, P; Vlahakos, D; Liapakis, G; Mavromoustakos, T; Matsoukas, J

>  <Institution>  (1) 
University of Patras

>  <Link to Ligand in BindingDB>  (1) 
http://www.bindingdb.org/bind/chemsearch/marvin/MolStructure.jsp?monomerid=50389541

>  <Link to Ligand-Target Pair in BindingDB>  (1) 
http://www.bindingdb.org/jsp/dbsearch/PrimarySearch_ki.jsp?energyterm=kJ/mole&tag=r21&monomerid=50389541&enzyme=Type-1+angiotensin+II+receptor&column=ki&startPg=0&Increment=50&submit=Search

>  <Ligand HET ID in PDB>  (1) 


>  <PDB ID(s) for Ligand-Target Complex>  (1) 


>  <PubChem CID of Ligand>  (1) 
10475382

>  <PubChem SID of Ligand>  (1) 
160868624

>  <ChEBI ID of Ligand>  (1) 


>  <ChEMBL ID of Ligand>  (1) 
CHEMBL2063979

>  <DrugBank ID of Ligand>  (1) 


>  <IUPHAR_GRAC ID of Ligand>  (1) 


>  <KEGG ID of Ligand>  (1) 


>  <ZINC ID of Ligand>  (1) 
ZINC38937342

>  <Number of Protein Chains in Target (bigger than 1 implies a multichain complex)>  (1) 
1

>  <BindingDB Target Chain Sequence>  (1) 
MILNSSTEDGIKRIQDDCPKAGRHNYIFVMIPTLYSIIFVVGIFGNSLVVIVIYFYMKLKTVASVFLLNLALADLCFLLTLPLWAVYTAMEYRWPFGNYLCKIASASVSFNLYASVFLLTCLSIDRYLAIVHPMKSRLRRTMLVAKVTCIIIWLLAGLASLPAIIHRNVFFIENTNITVCAFHYESQNSTLPIGLGLTKNILGFLFPFLIILTSYTLIWKALKKAYEIQKNKPRNDDIFKIIMAIVLFFFFSWIPHQIFTFLDVLIQLGIIRDCRIADIVDTAMPITICIAYFNNCLNPLFYGFLGKKFKRYFLQLLKYIPPKAKSHSNLSTKMSTLSYRPSDNVSSSTKKPAPCFEVE

>  <PDB ID(s) of Target Chain>  (1) 
6DO1,6OS0,6OS1,6OS2

>  <UniProt (SwissProt) Recommended Name of Target Chain>  (1) 
Type-1 angiotensin II receptor

>  <UniProt (SwissProt) Entry Name of Target Chain>  (1) 
AGTR1_HUMAN

>  <UniProt (SwissProt) Primary ID of Target Chain>  (1) 
P30556

>  <UniProt (SwissProt) Secondary ID(s) of Target Chain>  (1) 
Q13725 Q8TBK4

>  <UniProt (SwissProt) Alternative ID(s) of Target Chain>  (1) 


>  <UniProt (TrEMBL) Submitted Name of Target Chain>  (1) 


>  <UniProt (TrEMBL) Entry Name of Target Chain>  (1) 


>  <UniProt (TrEMBL) Primary ID of Target Chain>  (1) 


>  <UniProt (TrEMBL) Secondary ID(s) of Target Chain>  (1) 


>  <UniProt (TrEMBL) Alternative ID(s) of Target Chain>  (1) 


$$$$
