
     RDKit          2D

 42 45  0  0  0  0  0  0  0  0999 V2000
    8.1125   -5.5042    0.0000 N   0  0  0  0  0  0  0  0  0  0  0  0
    7.1417   -5.5042    0.0000 N   0  0  0  0  0  0  0  0  0  0  0  0
    7.6250   -5.8625    0.0000 C   0  0  0  0  0  0  0  0  0  0  0  0
    7.3250   -4.9375    0.0000 C   0  0  0  0  0  0  0  0  0  0  0  0
    7.9250   -4.9375    0.0000 C   0  0  0  0  0  0  0  0  0  0  0  0
    6.9750   -4.4417    0.0000 C   0  0  0  0  0  0  0  0  0  0  0  0
    5.9750   -4.0625    0.0000 N   0  0  0  0  0  0  0  0  0  0  0  0
    6.3792   -4.5042    0.0000 C   0  0  0  0  0  0  0  0  0  0  0  0
    5.4167   -4.8625    0.0000 N   0  0  0  0  0  0  0  0  0  0  0  0
    6.1042   -7.1750    0.0000 C   0  0  0  0  0  0  0  0  0  0  0  0
    5.4292   -4.3042    0.0000 C   0  0  0  0  0  0  0  0  0  0  0  0
    5.9875   -6.5875    0.0000 S   0  0  0  0  0  0  0  0  0  0  0  0
    6.0750   -5.0292    0.0000 C   0  0  0  0  0  0  0  0  0  0  0  0
    6.5042   -6.2875    0.0000 C   0  0  0  0  0  0  0  0  0  0  0  0
    5.7042   -7.6167    0.0000 C   0  0  0  0  0  0  0  0  0  0  0  0
    6.5667   -5.6917    0.0000 C   0  0  0  0  0  0  0  0  0  0  0  0
    6.7042   -7.2417    0.0000 C   0  0  0  0  0  0  0  0  0  0  0  0
    8.3792   -2.7375    0.0000 C   0  0  0  0  0  0  0  0  0  0  0  0
    6.9500   -6.6917    0.0000 C   0  0  0  0  0  0  0  0  0  0  0  0
    7.5917   -6.2625    0.0000 O   0  0  0  0  0  0  0  0  0  0  0  0
    6.1000   -3.4750    0.0000 C   0  0  0  0  0  0  0  0  0  0  0  0
    8.2792   -4.4417    0.0000 O   0  0  0  0  0  0  0  0  0  0  0  0
    7.8000   -2.8792    0.0000 C   0  0  0  0  0  0  0  0  0  0  0  0
    5.1167   -7.4917    0.0000 O   0  0  0  0  0  0  0  0  0  0  0  0
    8.5500   -2.1625    0.0000 O   0  0  0  0  0  0  0  0  0  0  0  0
    8.6792   -5.6917    0.0000 C   0  0  0  0  0  0  0  0  0  0  0  0
    7.3750   -2.4667    0.0000 C   0  0  0  0  0  0  0  0  0  0  0  0
    7.6875   -3.5125    0.0000 C   0  0  0  0  0  0  0  0  0  0  0  0
    6.6667   -3.2917    0.0000 C   0  0  0  0  0  0  0  0  0  0  0  0
    5.8875   -8.1917    0.0000 O   0  0  0  0  0  0  0  0  0  0  0  0
    8.7917   -3.1667    0.0000 O   0  0  0  0  0  0  0  0  0  0  0  0
    7.1167   -3.6917    0.0000 C   0  0  0  0  0  0  0  0  0  0  0  0
    6.7917   -2.7042    0.0000 C   0  0  0  0  0  0  0  0  0  0  0  0
    4.9042   -4.0042    0.0000 C   0  0  0  0  0  0  0  0  0  0  0  0
    9.3792   -3.0292    0.0000 C   0  0  0  0  0  0  0  0  0  0  0  0
    5.4792   -8.6292    0.0000 C   0  0  0  0  0  0  0  0  0  0  0  0
    8.8042   -6.2792    0.0000 C   0  0  0  0  0  0  0  0  0  0  0  0
    4.3875   -4.3042    0.0000 C   0  0  0  0  0  0  0  0  0  0  0  0
    9.3792   -6.4625    0.0000 C   0  0  0  0  0  0  0  0  0  0  0  0
    3.8667   -4.0042    0.0000 C   0  0  0  0  0  0  0  0  0  0  0  0
    9.5042   -7.0500    0.0000 C   0  0  0  0  0  0  0  0  0  0  0  0
    3.3500   -4.3042    0.0000 C   0  0  0  0  0  0  0  0  0  0  0  0
  2  3  1  0
  3  1  1  0
  4  5  1  0
  5  1  1  0
  6  4  2  0
  7  8  1  0
  8  6  1  0
  9 13  1  0
 10 12  1  0
 11  7  1  0
 12 14  1  0
 13  8  2  0
 14 16  1  0
 15 10  1  0
 16  2  1  0
 17 19  1  0
 18 23  1  0
 19 14  2  0
 20  3  2  0
 21  7  1  0
 22  5  2  0
 23 27  2  0
 24 15  2  0
 25 18  2  0
 26  1  1  0
 27 33  1  0
 28 32  2  0
 29 21  1  0
 30 15  1  0
 31 18  1  0
 32 29  1  0
 33 29  2  0
 34 11  1  0
 35 31  1  0
 36 30  1  0
 37 26  1  0
 38 34  1  0
 39 37  1  0
 40 38  1  0
 41 39  1  0
 42 40  1  0
  2  4  1  0
 11  9  2  0
 10 17  2  0
 28 23  1  0
M  END
>  <From>  (1) 
www.bindingDB.org

>  <BindingDB Reactant_set_id>  (1) 
51186060

>  <Ligand InChI>  (1) 
InChI=1S/C31H36N4O6S/c1-5-7-9-27-32-18-23(34(27)19-21-10-12-22(13-11-21)29(37)40-3)17-25-28(36)33(16-8-6-2)31(39)35(25)20-24-14-15-26(42-24)30(38)41-4/h10-15,17-18H,5-9,16,19-20H2,1-4H3/b25-17-

>  <Ligand InChI Key>  (1) 
HJBMQFGLONEPCK-UQQQWYQISA-N

>  <BindingDB MonomerID>  (1) 
50487678

>  <BindingDB Ligand Name>  (1) 
CHEMBL419421

>  <Target Name>  (1) 
Type-1 angiotensin II receptor

>  <Target Source Organism According to Curator or DataSource>  (1) 
Homo sapiens

>  <Ki (nM)>  (1) 


>  <IC50 (nM)>  (1) 
 4.2

>  <Kd (nM)>  (1) 


>  <EC50 (nM)>  (1) 


>  <kon (M-1-s-1)>  (1) 


>  <koff (s-1)>  (1) 


>  <pH>  (1) 


>  <Temp C>  (1) 


>  <Curation/DataSource>  (1) 
ChEMBL

>  <Article DOI>  (1) 
10.1007/s00044-009-9205-9

>  <BindingDB Entry DOI>  (1) 
10.7270/Q2CC13K2

>  <PMID>  (1) 


>  <PubChem AID>  (1) 


>  <Patent Number>  (1) 


>  <Authors>  (1) 
n/a

>  <Institution>  (1) 
n/a

>  <Link to Ligand in BindingDB>  (1) 
http://www.bindingdb.org/bind/chemsearch/marvin/MolStructure.jsp?monomerid=50487678

>  <Link to Ligand-Target Pair in BindingDB>  (1) 
http://www.bindingdb.org/jsp/dbsearch/PrimarySearch_ki.jsp?energyterm=kJ/mole&tag=r21&monomerid=50487678&enzyme=Type-1+angiotensin+II+receptor&column=ki&startPg=0&Increment=50&submit=Search

>  <Ligand HET ID in PDB>  (1) 


>  <PDB ID(s) for Ligand-Target Complex>  (1) 


>  <PubChem CID of Ligand>  (1) 
10483597

>  <PubChem SID of Ligand>  (1) 
433954943

>  <ChEBI ID of Ligand>  (1) 


>  <ChEMBL ID of Ligand>  (1) 


>  <DrugBank ID of Ligand>  (1) 


>  <IUPHAR_GRAC ID of Ligand>  (1) 


>  <KEGG ID of Ligand>  (1) 


>  <ZINC ID of Ligand>  (1) 


>  <Number of Protein Chains in Target (bigger than 1 implies a multichain complex)>  (1) 
1

>  <BindingDB Target Chain Sequence>  (1) 
MILNSSTEDGIKRIQDDCPKAGRHNYIFVMIPTLYSIIFVVGIFGNSLVVIVIYFYMKLKTVASVFLLNLALADLCFLLTLPLWAVYTAMEYRWPFGNYLCKIASASVSFNLYASVFLLTCLSIDRYLAIVHPMKSRLRRTMLVAKVTCIIIWLLAGLASLPAIIHRNVFFIENTNITVCAFHYESQNSTLPIGLGLTKNILGFLFPFLIILTSYTLIWKALKKAYEIQKNKPRNDDIFKIIMAIVLFFFFSWIPHQIFTFLDVLIQLGIIRDCRIADIVDTAMPITICIAYFNNCLNPLFYGFLGKKFKRYFLQLLKYIPPKAKSHSNLSTKMSTLSYRPSDNVSSSTKKPAPCFEVE

>  <PDB ID(s) of Target Chain>  (1) 
6DO1,6OS0,6OS1,6OS2

>  <UniProt (SwissProt) Recommended Name of Target Chain>  (1) 
Type-1 angiotensin II receptor

>  <UniProt (SwissProt) Entry Name of Target Chain>  (1) 
AGTR1_HUMAN

>  <UniProt (SwissProt) Primary ID of Target Chain>  (1) 
P30556

>  <UniProt (SwissProt) Secondary ID(s) of Target Chain>  (1) 
Q13725 Q8TBK4

>  <UniProt (SwissProt) Alternative ID(s) of Target Chain>  (1) 


>  <UniProt (TrEMBL) Submitted Name of Target Chain>  (1) 


>  <UniProt (TrEMBL) Entry Name of Target Chain>  (1) 


>  <UniProt (TrEMBL) Primary ID of Target Chain>  (1) 


>  <UniProt (TrEMBL) Secondary ID(s) of Target Chain>  (1) 


>  <UniProt (TrEMBL) Alternative ID(s) of Target Chain>  (1) 


$$$$
