
     RDKit          2D

 40 44  0  0  0  0  0  0  0  0999 V2000
    8.9877   -6.1330    0.0000 C   0  0  0  0  0  0  0  0  0  0  0  0
    8.9865   -6.9526    0.0000 C   0  0  0  0  0  0  0  0  0  0  0  0
    9.6946   -7.3615    0.0000 C   0  0  0  0  0  0  0  0  0  0  0  0
   10.4042   -6.9521    0.0000 C   0  0  0  0  0  0  0  0  0  0  0  0
   10.4014   -6.1294    0.0000 C   0  0  0  0  0  0  0  0  0  0  0  0
    9.6928   -5.7242    0.0000 C   0  0  0  0  0  0  0  0  0  0  0  0
   11.1126   -7.3596    0.0000 N   0  0  0  0  0  0  0  0  0  0  0  0
   11.8197   -6.9499    0.0000 C   0  0  0  0  0  0  0  0  0  0  0  0
   12.5280   -7.3574    0.0000 C   0  0  0  0  0  0  0  0  0  0  0  0
   11.8184   -6.1327    0.0000 O   0  0  0  0  0  0  0  0  0  0  0  0
   12.5247   -8.1730    0.0000 C   0  0  0  0  0  0  0  0  0  0  0  0
   13.2322   -8.5804    0.0000 C   0  0  0  0  0  0  0  0  0  0  0  0
   13.9402   -8.1706    0.0000 C   0  0  0  0  0  0  0  0  0  0  0  0
   13.9363   -7.3492    0.0000 C   0  0  0  0  0  0  0  0  0  0  0  0
   13.2282   -6.9455    0.0000 C   0  0  0  0  0  0  0  0  0  0  0  0
    8.2799   -5.7246    0.0000 C   0  0  0  0  0  0  0  0  0  0  0  0
    8.2797   -4.9074    0.0000 N   0  0  0  0  0  0  0  0  0  0  0  0
    8.9465   -4.4281    0.0000 C   0  0  0  0  0  0  0  0  0  0  0  0
    8.6938   -3.6510    0.0000 N   0  0  0  0  0  0  0  0  0  0  0  0
    7.8765   -3.6512    0.0000 N   0  0  0  0  0  0  0  0  0  0  0  0
    7.6243   -4.4285    0.0000 C   0  0  0  0  0  0  0  0  0  0  0  0
    6.8468   -4.6800    0.0000 C   0  0  0  0  0  0  0  0  0  0  0  0
    6.6760   -5.4792    0.0000 C   0  0  0  0  0  0  0  0  0  0  0  0
    7.2826   -6.0267    0.0000 C   0  0  0  0  0  0  0  0  0  0  0  0
   13.2176   -6.1273    0.0000 C   0  0  0  0  0  0  0  0  0  0  0  0
    9.7231   -4.6826    0.0000 N   0  0  0  0  0  0  0  0  0  0  0  0
   10.3317   -4.1372    0.0000 C   0  0  0  0  0  0  0  0  0  0  0  0
   13.8696   -5.6370    0.0000 N   0  0  0  0  0  0  0  0  0  0  0  0
   13.6066   -4.8622    0.0000 N   0  0  0  0  0  0  0  0  0  0  0  0
   12.7884   -4.8729    0.0000 N   0  0  0  0  0  0  0  0  0  0  0  0
   12.5458   -5.6543    0.0000 N   0  0  0  0  0  0  0  0  0  0  0  0
    7.1117   -6.8258    0.0000 C   0  0  0  0  0  0  0  0  0  0  0  0
   10.1637   -3.3375    0.0000 C   0  0  0  0  0  0  0  0  0  0  0  0
   10.7747   -2.7971    0.0000 C   0  0  0  0  0  0  0  0  0  0  0  0
   10.6072   -1.9981    0.0000 C   0  0  0  0  0  0  0  0  0  0  0  0
    9.8300   -1.7430    0.0000 C   0  0  0  0  0  0  0  0  0  0  0  0
    9.2199   -2.2931    0.0000 C   0  0  0  0  0  0  0  0  0  0  0  0
    9.3905   -3.0901    0.0000 C   0  0  0  0  0  0  0  0  0  0  0  0
    9.6609   -0.9434    0.0000 O   0  0  0  0  0  0  0  0  0  0  0  0
   10.2688   -0.3973    0.0000 C   0  0  0  0  0  0  0  0  0  0  0  0
  1  2  2  0
  2  3  1  0
  3  4  2  0
  4  5  1  0
  5  6  2  0
  6  1  1  0
  4  7  1  0
  7  8  1  0
  8  9  1  0
  8 10  2  0
  9 11  2  0
 11 12  1  0
 12 13  2  0
 13 14  1  0
 14 15  2  0
 15  9  1  0
  1 16  1  0
 16 17  1  0
 17 18  1  0
 18 19  2  0
 19 20  1  0
 20 21  2  0
 21 17  1  0
 21 22  1  0
 22 23  1  0
 23 24  1  0
 15 25  1  0
 18 26  1  0
 26 27  1  0
 25 28  2  0
 28 29  1  0
 29 30  2  0
 30 31  1  0
 31 25  1  0
 24 32  1  0
 27 33  1  0
 33 34  2  0
 34 35  1  0
 35 36  2  0
 36 37  1  0
 37 38  2  0
 38 33  1  0
 36 39  1  0
 39 40  1  0
M  END
>  <From>  (1) 
www.bindingDB.org

>  <BindingDB Reactant_set_id>  (1) 
51183539

>  <Ligand InChI>  (1) 
InChI=1S/C29H31N9O2/c1-3-4-9-26-32-35-29(30-18-20-12-16-23(40-2)17-13-20)38(26)19-21-10-14-22(15-11-21)31-28(39)25-8-6-5-7-24(25)27-33-36-37-34-27/h5-8,10-17H,3-4,9,18-19H2,1-2H3,(H,30,35)(H,31,39)(H,33,34,36,37)

>  <Ligand InChI Key>  (1) 
GDVVTVVKMMNPOZ-UHFFFAOYSA-N

>  <BindingDB MonomerID>  (1) 
50486746

>  <BindingDB Ligand Name>  (1) 
CHEMBL2237612

>  <Target Name>  (1) 
Type-1 angiotensin II receptor

>  <Target Source Organism According to Curator or DataSource>  (1) 
Oryctolagus cuniculus

>  <Ki (nM)>  (1) 


>  <IC50 (nM)>  (1) 
 780

>  <Kd (nM)>  (1) 


>  <EC50 (nM)>  (1) 


>  <kon (M-1-s-1)>  (1) 


>  <koff (s-1)>  (1) 


>  <pH>  (1) 


>  <Temp C>  (1) 


>  <Curation/DataSource>  (1) 
ChEMBL

>  <Article DOI>  (1) 
10.1007/s00044-011-9756-4

>  <BindingDB Entry DOI>  (1) 
10.7270/Q2833VXQ

>  <PMID>  (1) 


>  <PubChem AID>  (1) 


>  <Patent Number>  (1) 


>  <Authors>  (1) 
n/a

>  <Institution>  (1) 
n/a

>  <Link to Ligand in BindingDB>  (1) 
http://www.bindingdb.org/bind/chemsearch/marvin/MolStructure.jsp?monomerid=50486746

>  <Link to Ligand-Target Pair in BindingDB>  (1) 
http://www.bindingdb.org/jsp/dbsearch/PrimarySearch_ki.jsp?energyterm=kJ/mole&tag=r21&monomerid=50486746&enzyme=Type-1+angiotensin+II+receptor&column=ki&startPg=0&Increment=50&submit=Search

>  <Ligand HET ID in PDB>  (1) 


>  <PDB ID(s) for Ligand-Target Complex>  (1) 


>  <PubChem CID of Ligand>  (1) 
76319036

>  <PubChem SID of Ligand>  (1) 
433954011

>  <ChEBI ID of Ligand>  (1) 


>  <ChEMBL ID of Ligand>  (1) 


>  <DrugBank ID of Ligand>  (1) 


>  <IUPHAR_GRAC ID of Ligand>  (1) 


>  <KEGG ID of Ligand>  (1) 


>  <ZINC ID of Ligand>  (1) 


>  <Number of Protein Chains in Target (bigger than 1 implies a multichain complex)>  (1) 
1

>  <BindingDB Target Chain Sequence>  (1) 
MMLNSSTEDGIKRIQDDCPKAGRHNYIFVMIPTLYSIIFVVGIFGNSLAVIVIYFYMKLKTVASVFLLNLALADLCFLLTLPLWAVYTAMEYRWPFGNYLCKIASASVSFNLYASVFLLTCLSIDRYLAIVHPMKSRLRRTMLVAKVTCIIIWLLAGLASLPAIIHRNVFFIENTNITVCAFHYESQNSTLPIGLGLTKNILGFLFPFLIILTSYTLIWKALKKAYEIQKNKPRNDDIFKIIMAIVLFFFFSWVPHQIFTFLDVLIQLGVIHDCRIADIVDTAMPITICIAYFNNCLNPLFYGFLGKKFKKYFLQLLKYIPPKAKSHSNLSTKMSTLSYRPSDNVSSSSKKPVPCFEVE

>  <PDB ID(s) of Target Chain>  (1) 
6DO1,6OS0,6OS1,6OS2

>  <UniProt (SwissProt) Recommended Name of Target Chain>  (1) 
Type-1 angiotensin II receptor

>  <UniProt (SwissProt) Entry Name of Target Chain>  (1) 
AGTR1_RABIT

>  <UniProt (SwissProt) Primary ID of Target Chain>  (1) 
P34976

>  <UniProt (SwissProt) Secondary ID(s) of Target Chain>  (1) 


>  <UniProt (SwissProt) Alternative ID(s) of Target Chain>  (1) 


>  <UniProt (TrEMBL) Submitted Name of Target Chain>  (1) 


>  <UniProt (TrEMBL) Entry Name of Target Chain>  (1) 


>  <UniProt (TrEMBL) Primary ID of Target Chain>  (1) 


>  <UniProt (TrEMBL) Secondary ID(s) of Target Chain>  (1) 


>  <UniProt (TrEMBL) Alternative ID(s) of Target Chain>  (1) 


$$$$
