
     RDKit          2D

 33 37  0  0  0  0  0  0  0  0999 V2000
    9.7313   -7.8127    0.0000 N   0  0  0  0  0  0  0  0  0  0  0  0
   10.4445   -7.3992    0.0000 C   0  0  0  0  0  0  0  0  0  0  0  0
   10.4411   -6.5676    0.0000 C   0  0  0  0  0  0  0  0  0  0  0  0
    9.7292   -6.1589    0.0000 C   0  0  0  0  0  0  0  0  0  0  0  0
    9.0151   -7.3996    0.0000 C   0  0  0  0  0  0  0  0  0  0  0  0
    9.0120   -6.5749    0.0000 C   0  0  0  0  0  0  0  0  0  0  0  0
    8.2265   -6.3230    0.0000 N   0  0  0  0  0  0  0  0  0  0  0  0
    7.7442   -6.9921    0.0000 C   0  0  0  0  0  0  0  0  0  0  0  0
    8.2316   -7.6574    0.0000 N   0  0  0  0  0  0  0  0  0  0  0  0
    6.9190   -6.9953    0.0000 C   0  0  0  0  0  0  0  0  0  0  0  0
    6.5037   -6.2823    0.0000 C   0  0  0  0  0  0  0  0  0  0  0  0
    9.7273   -5.3339    0.0000 C   0  0  0  0  0  0  0  0  0  0  0  0
   11.1602   -7.8096    0.0000 C   0  0  0  0  0  0  0  0  0  0  0  0
    8.2221   -8.4794    0.0000 C   0  0  0  0  0  0  0  0  0  0  0  0
    8.9318   -8.9001    0.0000 C   0  0  0  0  0  0  0  0  0  0  0  0
    8.9185   -9.7233    0.0000 C   0  0  0  0  0  0  0  0  0  0  0  0
    9.6275  -10.1440    0.0000 C   0  0  0  0  0  0  0  0  0  0  0  0
    9.6452   -8.4934    0.0000 C   0  0  0  0  0  0  0  0  0  0  0  0
   10.3547   -8.9104    0.0000 C   0  0  0  0  0  0  0  0  0  0  0  0
   10.3509   -9.7353    0.0000 C   0  0  0  0  0  0  0  0  0  0  0  0
   11.1342   -9.9939    0.0000 N   0  0  0  0  0  0  0  0  0  0  0  0
   11.6223   -9.3288    0.0000 C   0  0  0  0  0  0  0  0  0  0  0  0
   11.1405   -8.6591    0.0000 C   0  0  0  0  0  0  0  0  0  0  0  0
   11.1246  -10.8188    0.0000 C   0  0  0  0  0  0  0  0  0  0  0  0
   11.8342  -11.2398    0.0000 C   0  0  0  0  0  0  0  0  0  0  0  0
   11.8209  -12.0628    0.0000 C   0  0  0  0  0  0  0  0  0  0  0  0
   12.5298  -12.4836    0.0000 C   0  0  0  0  0  0  0  0  0  0  0  0
   13.2501  -12.0794    0.0000 C   0  0  0  0  0  0  0  0  0  0  0  0
   13.2572  -11.2502    0.0000 C   0  0  0  0  0  0  0  0  0  0  0  0
   12.5477  -10.8330    0.0000 C   0  0  0  0  0  0  0  0  0  0  0  0
   12.5533  -10.0079    0.0000 Cl  0  0  0  0  0  0  0  0  0  0  0  0
   11.1003  -12.4691    0.0000 C   0  0  0  0  0  0  0  0  0  0  0  0
   10.3820  -12.8768    0.0000 N   0  0  0  0  0  0  0  0  0  0  0  0
 15 16  2  0
  6  7  1  0
 16 17  1  0
 17 20  2  0
  7  8  2  0
 19 18  2  0
 18 15  1  0
 19 20  1  0
  8  9  1  0
  9  5  1  0
  4  6  1  0
  8 10  1  0
  5  6  2  0
 20 21  1  0
 21 22  1  0
 22 23  2  0
 23 19  1  0
 10 11  1  0
 21 24  1  0
  1  2  2  0
 24 25  1  0
  4 12  1  0
 25 26  2  0
  5  1  1  0
 26 27  1  0
  2 13  1  0
 27 28  2  0
  2  3  1  0
 28 29  1  0
  9 14  1  0
 29 30  2  0
 30 25  1  0
 30 31  1  0
 14 15  1  0
 26 32  1  0
  3  4  2  0
 32 33  3  0
M  END
>  <From>  (1) 
www.bindingDB.org

>  <BindingDB Reactant_set_id>  (1) 
50062108

>  <Ligand InChI>  (1) 
InChI=1S/C27H24ClN5/c1-4-25-31-26-17(2)12-18(3)30-27(26)33(25)15-19-8-9-24-20(13-19)10-11-32(24)16-22-21(14-29)6-5-7-23(22)28/h5-13H,4,15-16H2,1-3H3

>  <Ligand InChI Key>  (1) 
YSISIAXMMNHFBH-UHFFFAOYSA-N

>  <BindingDB MonomerID>  (1) 
50043445

>  <BindingDB Ligand Name>  (1) 
3-Chloro-2-[5-(2-ethyl-5,7-dimethyl-3H-imidazo[4,5-b]pyridin-4-ylmethyl)-indol-1-ylmethyl]-benzonitrile::CHEMBL334775

>  <Target Name>  (1) 
Type-1 angiotensin II receptor

>  <Target Source Organism According to Curator or DataSource>  (1) 
Oryctolagus cuniculus

>  <Ki (nM)>  (1) 


>  <IC50 (nM)>  (1) 
 120

>  <Kd (nM)>  (1) 


>  <EC50 (nM)>  (1) 


>  <kon (M-1-s-1)>  (1) 


>  <koff (s-1)>  (1) 


>  <pH>  (1) 


>  <Temp C>  (1) 


>  <Curation/DataSource>  (1) 
ChEMBL

>  <Article DOI>  (1) 
10.1021/jm00078a013

>  <BindingDB Entry DOI>  (1) 
10.7270/Q26M35X0

>  <PMID>  (1) 
8277505

>  <PubChem AID>  (1) 


>  <Patent Number>  (1) 


>  <Authors>  (1) 
Dhanoa, DS; Bagley, SW; Chang, RS; Lotti, VJ; Chen, TB; Kivlighn, SD; Zingaro, GJ; Siegl, PK; Patchett, AA; Greenlee, WJ

>  <Institution>  (1) 
Merck Research Laboratories

>  <Link to Ligand in BindingDB>  (1) 
http://www.bindingdb.org/bind/chemsearch/marvin/MolStructure.jsp?monomerid=50043445

>  <Link to Ligand-Target Pair in BindingDB>  (1) 
http://www.bindingdb.org/jsp/dbsearch/PrimarySearch_ki.jsp?energyterm=kJ/mole&tag=r21&monomerid=50043445&enzyme=Type-1+angiotensin+II+receptor&column=ki&startPg=0&Increment=50&submit=Search

>  <Ligand HET ID in PDB>  (1) 


>  <PDB ID(s) for Ligand-Target Complex>  (1) 


>  <PubChem CID of Ligand>  (1) 
11744670

>  <PubChem SID of Ligand>  (1) 
103974873

>  <ChEBI ID of Ligand>  (1) 


>  <ChEMBL ID of Ligand>  (1) 
CHEMBL334775

>  <DrugBank ID of Ligand>  (1) 


>  <IUPHAR_GRAC ID of Ligand>  (1) 


>  <KEGG ID of Ligand>  (1) 


>  <ZINC ID of Ligand>  (1) 
ZINC13732390

>  <Number of Protein Chains in Target (bigger than 1 implies a multichain complex)>  (1) 
1

>  <BindingDB Target Chain Sequence>  (1) 
MMLNSSTEDGIKRIQDDCPKAGRHNYIFVMIPTLYSIIFVVGIFGNSLAVIVIYFYMKLKTVASVFLLNLALADLCFLLTLPLWAVYTAMEYRWPFGNYLCKIASASVSFNLYASVFLLTCLSIDRYLAIVHPMKSRLRRTMLVAKVTCIIIWLLAGLASLPAIIHRNVFFIENTNITVCAFHYESQNSTLPIGLGLTKNILGFLFPFLIILTSYTLIWKALKKAYEIQKNKPRNDDIFKIIMAIVLFFFFSWVPHQIFTFLDVLIQLGVIHDCRIADIVDTAMPITICIAYFNNCLNPLFYGFLGKKFKKYFLQLLKYIPPKAKSHSNLSTKMSTLSYRPSDNVSSSSKKPVPCFEVE

>  <PDB ID(s) of Target Chain>  (1) 
6DO1,6OS0,6OS1,6OS2

>  <UniProt (SwissProt) Recommended Name of Target Chain>  (1) 
Type-1 angiotensin II receptor

>  <UniProt (SwissProt) Entry Name of Target Chain>  (1) 
AGTR1_RABIT

>  <UniProt (SwissProt) Primary ID of Target Chain>  (1) 
P34976

>  <UniProt (SwissProt) Secondary ID(s) of Target Chain>  (1) 


>  <UniProt (SwissProt) Alternative ID(s) of Target Chain>  (1) 


>  <UniProt (TrEMBL) Submitted Name of Target Chain>  (1) 


>  <UniProt (TrEMBL) Entry Name of Target Chain>  (1) 


>  <UniProt (TrEMBL) Primary ID of Target Chain>  (1) 


>  <UniProt (TrEMBL) Secondary ID(s) of Target Chain>  (1) 


>  <UniProt (TrEMBL) Alternative ID(s) of Target Chain>  (1) 


$$$$
