
     RDKit          2D

 37 40  0  0  0  0  0  0  0  0999 V2000
    3.5417   -2.0542    0.0000 N   0  0  0  0  0  0  0  0  0  0  0  0
    2.5750   -2.0542    0.0000 N   0  0  0  0  0  0  0  0  0  0  0  0
    3.0625   -2.4042    0.0000 C   0  0  0  0  0  0  0  0  0  0  0  0
    2.7625   -1.4792    0.0000 C   0  0  0  0  0  0  0  0  0  0  0  0
    3.3625   -1.4792    0.0000 C   0  0  0  0  0  0  0  0  0  0  0  0
    2.4042   -0.9917    0.0000 C   0  0  0  0  0  0  0  0  0  0  0  0
    1.4042   -0.6042    0.0000 N   0  0  0  0  0  0  0  0  0  0  0  0
    1.8125   -1.0542    0.0000 C   0  0  0  0  0  0  0  0  0  0  0  0
    0.8542   -1.4042    0.0000 N   0  0  0  0  0  0  0  0  0  0  0  0
    0.8625   -0.8542    0.0000 C   0  0  0  0  0  0  0  0  0  0  0  0
    1.5042   -1.5750    0.0000 C   0  0  0  0  0  0  0  0  0  0  0  0
    2.0042   -2.2375    0.0000 C   0  0  0  0  0  0  0  0  0  0  0  0
    1.9167   -2.8417    0.0000 C   0  0  0  0  0  0  0  0  0  0  0  0
    3.8125    0.7208    0.0000 C   0  0  0  0  0  0  0  0  0  0  0  0
    3.0250   -2.8042    0.0000 O   0  0  0  0  0  0  0  0  0  0  0  0
    1.5292   -0.0167    0.0000 C   0  0  0  0  0  0  0  0  0  0  0  0
    1.4375   -3.6875    0.0000 S   0  0  0  0  0  0  0  0  0  0  0  0
    3.7125   -0.9917    0.0000 O   0  0  0  0  0  0  0  0  0  0  0  0
    3.2292    0.5750    0.0000 C   0  0  0  0  0  0  0  0  0  0  0  0
    1.3667   -3.0917    0.0000 C   0  0  0  0  0  0  0  0  0  0  0  0
    2.3167   -3.2792    0.0000 C   0  0  0  0  0  0  0  0  0  0  0  0
    2.0250   -3.8042    0.0000 C   0  0  0  0  0  0  0  0  0  0  0  0
    3.9792    1.2958    0.0000 O   0  0  0  0  0  0  0  0  0  0  0  0
    4.1167   -2.2375    0.0000 C   0  0  0  0  0  0  0  0  0  0  0  0
    3.1167   -0.0542    0.0000 C   0  0  0  0  0  0  0  0  0  0  0  0
    2.8042    0.9875    0.0000 C   0  0  0  0  0  0  0  0  0  0  0  0
    2.1042    0.1625    0.0000 C   0  0  0  0  0  0  0  0  0  0  0  0
    4.2292    0.2833    0.0000 O   0  0  0  0  0  0  0  0  0  0  0  0
    2.2292    0.7458    0.0000 C   0  0  0  0  0  0  0  0  0  0  0  0
    2.5500   -0.2417    0.0000 C   0  0  0  0  0  0  0  0  0  0  0  0
    0.3417   -0.5542    0.0000 C   0  0  0  0  0  0  0  0  0  0  0  0
    4.2417   -2.8250    0.0000 C   0  0  0  0  0  0  0  0  0  0  0  0
   -0.1833   -0.8542    0.0000 C   0  0  0  0  0  0  0  0  0  0  0  0
   -0.7000   -0.5542    0.0000 C   0  0  0  0  0  0  0  0  0  0  0  0
    4.8125   -3.0042    0.0000 C   0  0  0  0  0  0  0  0  0  0  0  0
   -1.2208   -0.8542    0.0000 C   0  0  0  0  0  0  0  0  0  0  0  0
    4.9375   -3.5917    0.0000 C   0  0  0  0  0  0  0  0  0  0  0  0
  2  3  1  0
  3  1  1  0
  4  5  1  0
  5  1  1  0
  6  4  2  0
  7  8  1  0
  8  6  1  0
  9 11  1  0
 10  7  1  0
 11  8  2  0
 12  2  1  0
 13 12  1  0
 14 19  1  0
 15  3  2  0
 16  7  1  0
 17 20  1  0
 18  5  2  0
 19 25  2  0
 20 13  2  0
 21 13  1  0
 22 21  2  0
 23 14  2  0
 24  1  1  0
 25 30  1  0
 26 29  2  0
 27 16  1  0
 28 14  1  0
 29 27  1  0
 30 27  2  0
 31 10  1  0
 32 24  1  0
 33 31  1  0
 34 33  1  0
 35 32  1  0
 36 34  1  0
 37 35  1  0
  2  4  1  0
 10  9  2  0
 17 22  1  0
 26 19  1  0
M  END
>  <From>  (1) 
www.bindingDB.org

>  <BindingDB Reactant_set_id>  (1) 
51186070

>  <Ligand InChI>  (1) 
InChI=1S/C28H32N4O4S/c1-3-5-7-25-29-16-23(31(25)17-20-8-10-22(11-9-20)27(34)35)15-24-26(33)30(13-6-4-2)28(36)32(24)18-21-12-14-37-19-21/h8-12,14-16,19H,3-7,13,17-18H2,1-2H3,(H,34,35)/b24-15-

>  <Ligand InChI Key>  (1) 
BWSMXLWKVGEYTH-IWIPYMOSSA-N

>  <BindingDB MonomerID>  (1) 
50487688

>  <BindingDB Ligand Name>  (1) 
CHEMBL341131

>  <Target Name>  (1) 
Type-1 angiotensin II receptor

>  <Target Source Organism According to Curator or DataSource>  (1) 
Homo sapiens

>  <Ki (nM)>  (1) 


>  <IC50 (nM)>  (1) 
 0.900000

>  <Kd (nM)>  (1) 


>  <EC50 (nM)>  (1) 


>  <kon (M-1-s-1)>  (1) 


>  <koff (s-1)>  (1) 


>  <pH>  (1) 


>  <Temp C>  (1) 


>  <Curation/DataSource>  (1) 
ChEMBL

>  <Article DOI>  (1) 
10.1007/s00044-009-9205-9

>  <BindingDB Entry DOI>  (1) 
10.7270/Q2CC13K2

>  <PMID>  (1) 


>  <PubChem AID>  (1) 


>  <Patent Number>  (1) 


>  <Authors>  (1) 
n/a

>  <Institution>  (1) 
n/a

>  <Link to Ligand in BindingDB>  (1) 
http://www.bindingdb.org/bind/chemsearch/marvin/MolStructure.jsp?monomerid=50487688

>  <Link to Ligand-Target Pair in BindingDB>  (1) 
http://www.bindingdb.org/jsp/dbsearch/PrimarySearch_ki.jsp?energyterm=kJ/mole&tag=r21&monomerid=50487688&enzyme=Type-1+angiotensin+II+receptor&column=ki&startPg=0&Increment=50&submit=Search

>  <Ligand HET ID in PDB>  (1) 


>  <PDB ID(s) for Ligand-Target Complex>  (1) 


>  <PubChem CID of Ligand>  (1) 
9984181

>  <PubChem SID of Ligand>  (1) 
433954953

>  <ChEBI ID of Ligand>  (1) 


>  <ChEMBL ID of Ligand>  (1) 


>  <DrugBank ID of Ligand>  (1) 


>  <IUPHAR_GRAC ID of Ligand>  (1) 


>  <KEGG ID of Ligand>  (1) 


>  <ZINC ID of Ligand>  (1) 


>  <Number of Protein Chains in Target (bigger than 1 implies a multichain complex)>  (1) 
1

>  <BindingDB Target Chain Sequence>  (1) 
MILNSSTEDGIKRIQDDCPKAGRHNYIFVMIPTLYSIIFVVGIFGNSLVVIVIYFYMKLKTVASVFLLNLALADLCFLLTLPLWAVYTAMEYRWPFGNYLCKIASASVSFNLYASVFLLTCLSIDRYLAIVHPMKSRLRRTMLVAKVTCIIIWLLAGLASLPAIIHRNVFFIENTNITVCAFHYESQNSTLPIGLGLTKNILGFLFPFLIILTSYTLIWKALKKAYEIQKNKPRNDDIFKIIMAIVLFFFFSWIPHQIFTFLDVLIQLGIIRDCRIADIVDTAMPITICIAYFNNCLNPLFYGFLGKKFKRYFLQLLKYIPPKAKSHSNLSTKMSTLSYRPSDNVSSSTKKPAPCFEVE

>  <PDB ID(s) of Target Chain>  (1) 
6DO1,6OS0,6OS1,6OS2

>  <UniProt (SwissProt) Recommended Name of Target Chain>  (1) 
Type-1 angiotensin II receptor

>  <UniProt (SwissProt) Entry Name of Target Chain>  (1) 
AGTR1_HUMAN

>  <UniProt (SwissProt) Primary ID of Target Chain>  (1) 
P30556

>  <UniProt (SwissProt) Secondary ID(s) of Target Chain>  (1) 
Q13725 Q8TBK4

>  <UniProt (SwissProt) Alternative ID(s) of Target Chain>  (1) 


>  <UniProt (TrEMBL) Submitted Name of Target Chain>  (1) 


>  <UniProt (TrEMBL) Entry Name of Target Chain>  (1) 


>  <UniProt (TrEMBL) Primary ID of Target Chain>  (1) 


>  <UniProt (TrEMBL) Secondary ID(s) of Target Chain>  (1) 


>  <UniProt (TrEMBL) Alternative ID(s) of Target Chain>  (1) 


$$$$
