
     RDKit          2D

 32 36  0  0  0  0  0  0  0  0999 V2000
    2.0792   -1.7542    0.0000 C   0  0  0  0  0  0  0  0  0  0  0  0
    1.4167   -2.2417    0.0000 N   0  0  0  0  0  0  0  0  0  0  0  0
    1.8250   -0.9667    0.0000 N   0  0  0  0  0  0  0  0  0  0  0  0
    1.0042   -0.9667    0.0000 N   0  0  0  0  0  0  0  0  0  0  0  0
    0.7500   -1.7542    0.0000 C   0  0  0  0  0  0  0  0  0  0  0  0
    2.9042   -1.7542    0.0000 N   0  0  0  0  0  0  0  0  0  0  0  0
    4.9750   -3.4750    0.0000 C   0  0  0  0  0  0  0  0  0  0  0  0
    4.5417   -2.2042    0.0000 N   0  0  0  0  0  0  0  0  0  0  0  0
    4.3000   -2.9917    0.0000 N   0  0  0  0  0  0  0  0  0  0  0  0
    5.3750   -2.2000    0.0000 N   0  0  0  0  0  0  0  0  0  0  0  0
    2.4917   -0.4792    0.0000 C   0  0  0  0  0  0  0  0  0  0  0  0
    5.6375   -2.9792    0.0000 N   0  0  0  0  0  0  0  0  0  0  0  0
    3.1625   -0.9667    0.0000 C   0  0  0  0  0  0  0  0  0  0  0  0
    4.9792   -4.3042    0.0000 C   0  0  0  0  0  0  0  0  0  0  0  0
    4.2750   -4.7167    0.0000 C   0  0  0  0  0  0  0  0  0  0  0  0
    1.4167   -3.0667    0.0000 C   0  0  0  0  0  0  0  0  0  0  0  0
    3.5542   -4.3042    0.0000 C   0  0  0  0  0  0  0  0  0  0  0  0
    3.5542   -3.4792    0.0000 C   0  0  0  0  0  0  0  0  0  0  0  0
    2.8500   -4.7167    0.0000 C   0  0  0  0  0  0  0  0  0  0  0  0
    2.1292   -3.4792    0.0000 C   0  0  0  0  0  0  0  0  0  0  0  0
   -0.0750   -1.7542    0.0000 C   0  0  0  0  0  0  0  0  0  0  0  0
    2.8417   -3.0667    0.0000 C   0  0  0  0  0  0  0  0  0  0  0  0
    2.1292   -4.3042    0.0000 C   0  0  0  0  0  0  0  0  0  0  0  0
    5.6917   -4.7125    0.0000 C   0  0  0  0  0  0  0  0  0  0  0  0
    3.9417   -0.7125    0.0000 C   0  0  0  0  0  0  0  0  0  0  0  0
    4.2667   -5.5417    0.0000 C   0  0  0  0  0  0  0  0  0  0  0  0
   -0.4875   -1.0417    0.0000 C   0  0  0  0  0  0  0  0  0  0  0  0
   -1.3125   -1.0417    0.0000 C   0  0  0  0  0  0  0  0  0  0  0  0
    4.1167    0.0958    0.0000 C   0  0  0  0  0  0  0  0  0  0  0  0
    4.9792   -5.9542    0.0000 C   0  0  0  0  0  0  0  0  0  0  0  0
    5.7000   -5.5417    0.0000 C   0  0  0  0  0  0  0  0  0  0  0  0
   -1.7250   -0.3250    0.0000 C   0  0  0  0  0  0  0  0  0  0  0  0
  2  1  1  0
  3  1  1  0
  4  3  1  0
  5  2  1  0
  6  1  2  0
  7 14  1  0
  8  9  1  0
  9  7  1  0
 10 12  1  0
 11  3  1  0
 12  7  2  0
 13  6  1  0
 14 15  1  0
 15 17  1  0
 16  2  1  0
 17 19  2  0
 18 22  2  0
 19 23  1  0
 20 16  1  0
 21  5  1  0
 22 20  1  0
 23 20  2  0
 24 14  2  0
 25 13  1  0
 26 15  2  0
 27 21  1  0
 28 27  1  0
 29 25  1  0
 30 26  1  0
 31 30  2  0
 32 28  1  0
 13 11  2  0
  4  5  2  0
 17 18  1  0
 24 31  1  0
 10  8  2  0
M  END
>  <From>  (1) 
www.bindingDB.org

>  <BindingDB Reactant_set_id>  (1) 
50035016

>  <Ligand InChI>  (1) 
InChI=1S/C24H26N8/c1-3-5-10-22-28-32-16-19(4-2)25-24(32)31(22)15-17-11-13-18(14-12-17)20-8-6-7-9-21(20)23-26-29-30-27-23/h6-9,11-14,16H,3-5,10,15H2,1-2H3,(H,26,27,29,30)

>  <Ligand InChI Key>  (1) 
UXMZMKHEVDCAPC-UHFFFAOYSA-N

>  <BindingDB MonomerID>  (1) 
50047833

>  <BindingDB Ligand Name>  (1) 
2-Butyl-5-ethyl-3-[2'-(1H-tetrazol-5-yl)-biphenyl-4-ylmethyl]-3H-imidazo[1,2-b][1,2,4]triazole::CHEMBL350241

>  <Target Name>  (1) 
Type-1 angiotensin II receptor

>  <Target Source Organism According to Curator or DataSource>  (1) 
Oryctolagus cuniculus

>  <Ki (nM)>  (1) 


>  <IC50 (nM)>  (1) 
 55

>  <Kd (nM)>  (1) 


>  <EC50 (nM)>  (1) 


>  <kon (M-1-s-1)>  (1) 


>  <koff (s-1)>  (1) 


>  <pH>  (1) 


>  <Temp C>  (1) 


>  <Curation/DataSource>  (1) 
ChEMBL

>  <Article DOI>  (1) 
10.1021/jm00057a009

>  <BindingDB Entry DOI>  (1) 
10.7270/Q2P55MKH

>  <PMID>  (1) 
8496939

>  <PubChem AID>  (1) 


>  <Patent Number>  (1) 


>  <Authors>  (1) 
Ashton, WT; Cantone, CL; Chang, LL; Hutchins, SM; Strelitz, RA; MacCoss, M; Chang, RS; Lotti, VJ; Faust, KA; Chen, TB

>  <Institution>  (1) 
Merck Research Laboratories

>  <Link to Ligand in BindingDB>  (1) 
http://www.bindingdb.org/bind/chemsearch/marvin/MolStructure.jsp?monomerid=50047833

>  <Link to Ligand-Target Pair in BindingDB>  (1) 
http://www.bindingdb.org/jsp/dbsearch/PrimarySearch_ki.jsp?energyterm=kJ/mole&tag=r21&monomerid=50047833&enzyme=Type-1+angiotensin+II+receptor&column=ki&startPg=0&Increment=50&submit=Search

>  <Ligand HET ID in PDB>  (1) 


>  <PDB ID(s) for Ligand-Target Complex>  (1) 


>  <PubChem CID of Ligand>  (1) 
9985840

>  <PubChem SID of Ligand>  (1) 
103978397

>  <ChEBI ID of Ligand>  (1) 


>  <ChEMBL ID of Ligand>  (1) 
CHEMBL350241

>  <DrugBank ID of Ligand>  (1) 


>  <IUPHAR_GRAC ID of Ligand>  (1) 


>  <KEGG ID of Ligand>  (1) 


>  <ZINC ID of Ligand>  (1) 
ZINC13825693

>  <Number of Protein Chains in Target (bigger than 1 implies a multichain complex)>  (1) 
1

>  <BindingDB Target Chain Sequence>  (1) 
MMLNSSTEDGIKRIQDDCPKAGRHNYIFVMIPTLYSIIFVVGIFGNSLAVIVIYFYMKLKTVASVFLLNLALADLCFLLTLPLWAVYTAMEYRWPFGNYLCKIASASVSFNLYASVFLLTCLSIDRYLAIVHPMKSRLRRTMLVAKVTCIIIWLLAGLASLPAIIHRNVFFIENTNITVCAFHYESQNSTLPIGLGLTKNILGFLFPFLIILTSYTLIWKALKKAYEIQKNKPRNDDIFKIIMAIVLFFFFSWVPHQIFTFLDVLIQLGVIHDCRIADIVDTAMPITICIAYFNNCLNPLFYGFLGKKFKKYFLQLLKYIPPKAKSHSNLSTKMSTLSYRPSDNVSSSSKKPVPCFEVE

>  <PDB ID(s) of Target Chain>  (1) 
6DO1,6OS0,6OS1,6OS2

>  <UniProt (SwissProt) Recommended Name of Target Chain>  (1) 
Type-1 angiotensin II receptor

>  <UniProt (SwissProt) Entry Name of Target Chain>  (1) 
AGTR1_RABIT

>  <UniProt (SwissProt) Primary ID of Target Chain>  (1) 
P34976

>  <UniProt (SwissProt) Secondary ID(s) of Target Chain>  (1) 


>  <UniProt (SwissProt) Alternative ID(s) of Target Chain>  (1) 


>  <UniProt (TrEMBL) Submitted Name of Target Chain>  (1) 


>  <UniProt (TrEMBL) Entry Name of Target Chain>  (1) 


>  <UniProt (TrEMBL) Primary ID of Target Chain>  (1) 


>  <UniProt (TrEMBL) Secondary ID(s) of Target Chain>  (1) 


>  <UniProt (TrEMBL) Alternative ID(s) of Target Chain>  (1) 


$$$$
