
     RDKit          2D

 41 48  0  0  0  0  0  0  0  0999 V2000
    2.0814   10.0902    0.0000 C   0  0  0  0  0  0  0  0  0  0  0  0
    1.9246    8.5984    0.0000 C   0  0  0  0  0  0  0  0  0  0  0  0
    3.0393    7.5947    0.0000 N   0  0  0  0  0  0  0  0  0  0  0  0
    2.4292    6.2244    0.0000 C   0  0  0  0  0  0  0  0  0  0  0  0
    3.0393    4.8541    0.0000 C   0  0  0  0  0  0  0  0  0  0  0  0
    2.1577    3.6406    0.0000 C   0  0  0  0  0  0  0  0  0  0  0  0
    0.6659    3.7974    0.0000 C   0  0  0  0  0  0  0  0  0  0  0  0
   -0.2158    2.5838    0.0000 C   0  0  0  0  0  0  0  0  0  0  0  0
    0.3943    1.2135    0.0000 C   0  0  0  0  0  0  0  0  0  0  0  0
    1.6933    1.9635    0.0000 C   0  0  0  0  0  0  0  0  0  0  0  0
    2.9924    1.2135    0.0000 C   0  0  0  0  0  0  0  0  0  0  0  0
    2.9924   -0.2865    0.0000 C   0  0  0  0  0  0  0  0  0  0  0  0
    4.2914   -1.0365    0.0000 C   0  0  0  0  0  0  0  0  0  0  0  0
    5.5905   -0.2865    0.0000 C   0  0  0  0  0  0  0  0  0  0  0  0
    7.0170   -0.7500    0.0000 N   0  0  0  0  0  0  0  0  0  0  0  0
    7.8987    0.4635    0.0000 C   0  0  0  0  0  0  0  0  0  0  0  0
    9.3987    0.4635    0.0000 C   0  0  0  0  0  0  0  0  0  0  0  0
    7.0170    1.6771    0.0000 N   0  0  0  0  0  0  0  0  0  0  0  0
    7.4806    3.1036    0.0000 C   0  0  0  0  0  0  0  0  0  0  0  0
    5.5905    1.2135    0.0000 C   0  0  0  0  0  0  0  0  0  0  0  0
    4.2914    1.9635    0.0000 C   0  0  0  0  0  0  0  0  0  0  0  0
    1.2760    0.0000    0.0000 C   0  0  0  0  0  0  0  0  0  0  0  0
    0.3943   -1.2135    0.0000 C   0  0  0  0  0  0  0  0  0  0  0  0
   -1.0323   -0.7500    0.0000 C   0  0  0  0  0  0  0  0  0  0  0  0
   -1.0323    0.7500    0.0000 C   0  0  0  0  0  0  0  0  0  0  0  0
   -2.3463    0.0067    0.0000 C   0  0  0  0  0  0  0  0  0  0  0  0
   -3.8136    0.3186    0.0000 N   0  0  0  0  0  0  0  0  0  0  0  0
   -4.5636   -0.9805    0.0000 C   0  0  0  0  0  0  0  0  0  0  0  0
   -6.0553   -1.1373    0.0000 C   0  0  0  0  0  0  0  0  0  0  0  0
   -3.5599   -2.0952    0.0000 N   0  0  0  0  0  0  0  0  0  0  0  0
   -2.1895   -1.4851    0.0000 C   0  0  0  0  0  0  0  0  0  0  0  0
   -0.8192   -2.0952    0.0000 C   0  0  0  0  0  0  0  0  0  0  0  0
   -0.6624   -3.5870    0.0000 C   0  0  0  0  0  0  0  0  0  0  0  0
   -1.8760   -4.4687    0.0000 C   0  0  0  0  0  0  0  0  0  0  0  0
   -1.7192   -5.9604    0.0000 C   0  0  0  0  0  0  0  0  0  0  0  0
   -0.3488   -6.5706    0.0000 C   0  0  0  0  0  0  0  0  0  0  0  0
    0.8647   -5.6889    0.0000 C   0  0  0  0  0  0  0  0  0  0  0  0
    0.7079   -4.1971    0.0000 C   0  0  0  0  0  0  0  0  0  0  0  0
    0.0558    5.1677    0.0000 C   0  0  0  0  0  0  0  0  0  0  0  0
    0.9374    6.3812    0.0000 C   0  0  0  0  0  0  0  0  0  0  0  0
    0.6256    7.8484    0.0000 N   0  0  0  0  0  0  0  0  0  0  0  0
  1  2  1  0
  2  3  2  0
  3  4  1  0
  4  5  2  0
  5  6  1  0
  6  7  2  0
  7  8  1  0
  8  9  1  0
  9 10  1  0
 10 11  1  0
 11 12  2  0
 12 13  1  0
 13 14  2  0
 14 15  1  0
 15 16  2  0
 16 17  1  0
 16 18  1  0
 18 19  1  0
 18 20  1  0
 20 21  2  0
  9 22  1  0
 22 23  1  0
 23 24  1  0
 24 25  2  0
 25 26  1  0
 26 27  1  0
 27 28  2  0
 28 29  1  0
 28 30  1  0
 30 31  1  0
 31 32  1  0
 32 33  1  0
 33 34  2  0
 34 35  1  0
 35 36  2  0
 36 37  1  0
 37 38  2  0
  7 39  1  0
 39 40  2  0
 40 41  1  0
 41  2  1  0
 40  4  1  0
 25  9  1  0
 31 26  2  0
 38 33  1  0
 21 11  1  0
 32 23  2  0
 20 14  1  0
M  END
$$$$
