
     RDKit          2D

 39 46  0  0  0  0  0  0  0  0999 V2000
   -1.3961    5.0672    0.0000 O   0  0  0  0  0  0  0  0  0  0  0  0
   -1.8596    3.6406    0.0000 C   0  0  0  0  0  0  0  0  0  0  0  0
   -3.2862    3.1771    0.0000 C   0  0  0  0  0  0  0  0  0  0  0  0
   -3.2862    1.6771    0.0000 C   0  0  0  0  0  0  0  0  0  0  0  0
   -4.4997    0.7954    0.0000 O   0  0  0  0  0  0  0  0  0  0  0  0
   -1.8596    1.2135    0.0000 C   0  0  0  0  0  0  0  0  0  0  0  0
   -2.7413    0.0000    0.0000 N   0  0  0  0  0  0  0  0  0  0  0  0
   -1.8596   -1.2135    0.0000 C   0  0  0  0  0  0  0  0  0  0  0  0
   -1.2495   -2.5838    0.0000 O   0  0  0  0  0  0  0  0  0  0  0  0
    0.0987   -3.2414    0.0000 O   0  0  0  0  0  0  0  0  0  0  0  0
    1.5541   -2.8785    0.0000 N   0  0  0  0  0  0  0  0  0  0  0  0
    2.4358   -4.0920    0.0000 C   0  0  0  0  0  0  0  0  0  0  0  0
    1.9723   -5.5186    0.0000 Cl  0  0  0  0  0  0  0  0  0  0  0  0
    3.8624   -3.6285    0.0000 N   0  0  0  0  0  0  0  0  0  0  0  0
    3.8624   -2.1285    0.0000 C   0  0  0  0  0  0  0  0  0  0  0  0
    5.0759   -1.2468    0.0000 C   0  0  0  0  0  0  0  0  0  0  0  0
    4.9191    0.2449    0.0000 C   0  0  0  0  0  0  0  0  0  0  0  0
    6.1327    1.1266    0.0000 C   0  0  0  0  0  0  0  0  0  0  0  0
    5.9759    2.6184    0.0000 C   0  0  0  0  0  0  0  0  0  0  0  0
    7.0906    3.6221    0.0000 N   0  0  0  0  0  0  0  0  0  0  0  0
    6.4805    4.9924    0.0000 N   0  0  0  0  0  0  0  0  0  0  0  0
    4.9887    4.8356    0.0000 N   0  0  0  0  0  0  0  0  0  0  0  0
    4.6768    3.3684    0.0000 N   0  0  0  0  0  0  0  0  0  0  0  0
    7.5030    0.5165    0.0000 C   0  0  0  0  0  0  0  0  0  0  0  0
    7.6598   -0.9753    0.0000 C   0  0  0  0  0  0  0  0  0  0  0  0
    6.4462   -1.8569    0.0000 C   0  0  0  0  0  0  0  0  0  0  0  0
    6.6030   -3.3487    0.0000 C   0  0  0  0  0  0  0  0  0  0  0  0
    5.4883   -4.3524    0.0000 N   0  0  0  0  0  0  0  0  0  0  0  0
    6.0984   -5.7227    0.0000 N   0  0  0  0  0  0  0  0  0  0  0  0
    7.5902   -5.5659    0.0000 N   0  0  0  0  0  0  0  0  0  0  0  0
    7.9021   -4.0987    0.0000 N   0  0  0  0  0  0  0  0  0  0  0  0
    2.4358   -1.6650    0.0000 C   0  0  0  0  0  0  0  0  0  0  0  0
    2.3312   -0.1686    0.0000 O   0  0  0  0  0  0  0  0  0  0  0  0
    1.2892    0.9104    0.0000 O   0  0  0  0  0  0  0  0  0  0  0  0
   -0.4330    0.7500    0.0000 C   0  0  0  0  0  0  0  0  0  0  0  0
    0.8660    0.0000    0.0000 O   0  0  0  0  0  0  0  0  0  0  0  0
   -0.4330   -0.7500    0.0000 N   0  0  0  0  0  0  0  0  0  0  0  0
   -0.9779    2.4271    0.0000 C   0  0  0  0  0  0  0  0  0  0  0  0
    0.5221    2.4271    0.0000 O   0  0  0  0  0  0  0  0  0  0  0  0
  1  2  2  0
  2  3  1  0
  3  4  1  0
  4  5  2  0
  4  6  1  0
  6  7  1  0
  7  8  2  0
  8  9  1  0
  9 10  1  0
 10 11  1  0
 11 12  1  0
 12 13  1  0
 12 14  2  0
 14 15  1  0
 15 16  1  0
 16 17  2  0
 17 18  1  0
 18 19  1  0
 19 20  2  0
 20 21  1  0
 21 22  1  0
 22 23  2  0
 18 24  2  0
 24 25  1  0
 25 26  2  0
 26 27  1  0
 27 28  2  0
 28 29  1  0
 29 30  1  0
 30 31  2  0
 15 32  2  0
 32 33  1  0
 33 34  1  0
 34 35  1  0
 35 36  1  0
 36 37  1  0
  6 38  1  0
 38 39  2  0
 38  2  1  0
 35  6  1  0
 37  8  1  0
 32 11  1  0
 37 35  1  0
 26 16  1  0
 31 27  1  0
 23 19  1  0
M  END
$$$$
