
     RDKit          2D

 30 34  0  0  0  0  0  0  0  0999 V2000
   -0.0692    5.0672    0.0000 O   0  0  0  0  0  0  0  0  0  0  0  0
    0.3943    3.6406    0.0000 C   0  0  0  0  0  0  0  0  0  0  0  0
    1.8209    3.1771    0.0000 N   0  0  0  0  0  0  0  0  0  0  0  0
    3.0344    4.0587    0.0000 C   0  0  0  0  0  0  0  0  0  0  0  0
    4.4047    3.4486    0.0000 C   0  0  0  0  0  0  0  0  0  0  0  0
    5.7038    4.1986    0.0000 N   0  0  0  0  0  0  0  0  0  0  0  0
    6.8185    3.1949    0.0000 C   0  0  0  0  0  0  0  0  0  0  0  0
    8.2857    3.5068    0.0000 C   0  0  0  0  0  0  0  0  0  0  0  0
    9.2894    2.3921    0.0000 C   0  0  0  0  0  0  0  0  0  0  0  0
   10.7566    2.7039    0.0000 C   0  0  0  0  0  0  0  0  0  0  0  0
   11.2201    4.1305    0.0000 C   0  0  0  0  0  0  0  0  0  0  0  0
   10.2165    5.2452    0.0000 C   0  0  0  0  0  0  0  0  0  0  0  0
    8.7492    4.9334    0.0000 C   0  0  0  0  0  0  0  0  0  0  0  0
    7.7455    6.0481    0.0000 C   0  0  0  0  0  0  0  0  0  0  0  0
    8.2091    7.4747    0.0000 C   0  0  0  0  0  0  0  0  0  0  0  0
    7.2054    8.5894    0.0000 C   0  0  0  0  0  0  0  0  0  0  0  0
    5.7381    8.2775    0.0000 C   0  0  0  0  0  0  0  0  0  0  0  0
    5.2746    6.8509    0.0000 C   0  0  0  0  0  0  0  0  0  0  0  0
    6.2783    5.7362    0.0000 C   0  0  0  0  0  0  0  0  0  0  0  0
    6.2084    1.8246    0.0000 C   0  0  0  0  0  0  0  0  0  0  0  0
    4.7166    1.9814    0.0000 N   0  0  0  0  0  0  0  0  0  0  0  0
    3.8563    0.7527    0.0000 O   0  0  0  0  0  0  0  0  0  0  0  0
    1.8209    1.6771    0.0000 C   0  0  0  0  0  0  0  0  0  0  0  0
    2.9179    0.6540    0.0000 O   0  0  0  0  0  0  0  0  0  0  0  0
    0.3943    1.2135    0.0000 N   0  0  0  0  0  0  0  0  0  0  0  0
   -0.4874    2.4271    0.0000 C   0  0  0  0  0  0  0  0  0  0  0  0
   -1.3691    3.6406    0.0000 C   0  0  0  0  0  0  0  0  0  0  0  0
   -2.7956    3.1771    0.0000 C   0  0  0  0  0  0  0  0  0  0  0  0
   -2.7956    1.6771    0.0000 C   0  0  0  0  0  0  0  0  0  0  0  0
   -1.3691    1.2135    0.0000 C   0  0  0  0  0  0  0  0  0  0  0  0
  1  2  2  0
  2  3  1  0
  3  4  1  0
  4  5  1  0
  5  6  2  0
  6  7  1  0
  7  8  1  0
  8  9  2  0
  9 10  1  0
 10 11  2  0
 11 12  1  0
 12 13  2  0
 13 14  1  0
 14 15  2  0
 15 16  1  0
 16 17  2  0
 17 18  1  0
 18 19  2  0
  7 20  2  0
 20 21  1  0
 21 22  1  0
  3 23  1  0
 23 24  1  0
 23 25  2  0
 25 26  1  0
 26 27  1  0
 27 28  1  0
 28 29  1  0
 29 30  1  0
 26  2  1  0
 21  5  1  0
 30 26  1  0
 13  8  1  0
 19 14  1  0
M  END
$$$$
