
     RDKit          2D

 39 45  0  0  0  0  0  0  0  0999 V2000
    6.1006    1.7865    0.0000 C   0  0  0  0  0  0  0  0  0  0  0  0
    4.6741    2.2500    0.0000 C   0  0  0  0  0  0  0  0  0  0  0  0
    4.3622    3.7172    0.0000 C   0  0  0  0  0  0  0  0  0  0  0  0
    2.9356    4.1807    0.0000 C   0  0  0  0  0  0  0  0  0  0  0  0
    1.8209    3.1771    0.0000 C   0  0  0  0  0  0  0  0  0  0  0  0
    1.8209    1.6771    0.0000 N   0  0  0  0  0  0  0  0  0  0  0  0
    0.3943    1.2135    0.0000 C   0  0  0  0  0  0  0  0  0  0  0  0
    1.2760    0.0000    0.0000 C   0  0  0  0  0  0  0  0  0  0  0  0
    0.3943   -1.2135    0.0000 C   0  0  0  0  0  0  0  0  0  0  0  0
   -1.0323   -0.7500    0.0000 C   0  0  0  0  0  0  0  0  0  0  0  0
   -1.0323    0.7500    0.0000 C   0  0  0  0  0  0  0  0  0  0  0  0
   -0.4874    2.4271    0.0000 C   0  0  0  0  0  0  0  0  0  0  0  0
   -1.9874    2.4271    0.0000 O   0  0  0  0  0  0  0  0  0  0  0  0
    0.3943    3.6406    0.0000 N   0  0  0  0  0  0  0  0  0  0  0  0
    0.0824    5.1078    0.0000 O   0  0  0  0  0  0  0  0  0  0  0  0
    1.1971    6.1115    0.0000 N   0  0  0  0  0  0  0  0  0  0  0  0
    2.6237    5.6480    0.0000 C   0  0  0  0  0  0  0  0  0  0  0  0
    3.5054    6.8615    0.0000 N   0  0  0  0  0  0  0  0  0  0  0  0
    2.6237    8.0750    0.0000 C   0  0  0  0  0  0  0  0  0  0  0  0
    3.0873    9.5016    0.0000 C   0  0  0  0  0  0  0  0  0  0  0  0
    2.0836   10.6163    0.0000 C   0  0  0  0  0  0  0  0  0  0  0  0
    2.5471   12.0429    0.0000 C   0  0  0  0  0  0  0  0  0  0  0  0
    4.0143   12.3548    0.0000 C   0  0  0  0  0  0  0  0  0  0  0  0
    5.0180   11.2401    0.0000 C   0  0  0  0  0  0  0  0  0  0  0  0
    4.5545    9.8135    0.0000 C   0  0  0  0  0  0  0  0  0  0  0  0
    5.5582    8.6988    0.0000 C   0  0  0  0  0  0  0  0  0  0  0  0
    5.0947    7.2722    0.0000 C   0  0  0  0  0  0  0  0  0  0  0  0
    6.0983    6.1575    0.0000 C   0  0  0  0  0  0  0  0  0  0  0  0
    7.5656    6.4693    0.0000 C   0  0  0  0  0  0  0  0  0  0  0  0
    8.0291    7.8959    0.0000 C   0  0  0  0  0  0  0  0  0  0  0  0
    7.0254    9.0106    0.0000 C   0  0  0  0  0  0  0  0  0  0  0  0
    7.4889   10.4372    0.0000 C   0  0  0  0  0  0  0  0  0  0  0  0
    8.9155   10.9007    0.0000 N   0  0  0  0  0  0  0  0  0  0  0  0
    8.9155   12.4007    0.0000 N   0  0  0  0  0  0  0  0  0  0  0  0
    7.4889   12.8643    0.0000 N   0  0  0  0  0  0  0  0  0  0  0  0
    6.6072   11.6507    0.0000 N   0  0  0  0  0  0  0  0  0  0  0  0
    1.1971    7.6115    0.0000 C   0  0  0  0  0  0  0  0  0  0  0  0
   -0.0164    8.4932    0.0000 O   0  0  0  0  0  0  0  0  0  0  0  0
   -1.3867    7.8831    0.0000 O   0  0  0  0  0  0  0  0  0  0  0  0
  1  2  1  0
  2  3  1  0
  3  4  1  0
  4  5  1  0
  5  6  2  0
  6  7  1  0
  7  8  1  0
  8  9  1  0
  9 10  1  0
 10 11  1  0
  7 12  1  0
 12 13  2  0
 12 14  1  0
 14 15  1  0
 15 16  1  0
 16 17  1  0
 17 18  2  0
 18 19  1  0
 19 20  1  0
 20 21  2  0
 21 22  1  0
 22 23  2  0
 23 24  1  0
 24 25  2  0
 25 26  1  0
 26 27  2  0
 27 28  1  0
 28 29  2  0
 29 30  1  0
 30 31  2  0
 31 32  1  0
 32 33  2  0
 33 34  1  0
 34 35  1  0
 35 36  2  0
 19 37  2  0
 37 38  1  0
 38 39  1  0
 17  4  1  0
 25 20  1  0
 31 26  1  0
 36 32  1  0
 14  5  1  0
 37 16  1  0
 11  7  1  0
M  END
$$$$
