
     RDKit          2D

 38 44  0  0  0  0  0  0  0  0999 V2000
    2.7760   -0.0000    0.0000 C   0  0  0  0  0  0  0  0  0  0  0  0
    1.2760    0.0000    0.0000 C   0  0  0  0  0  0  0  0  0  0  0  0
    0.3943    1.2135    0.0000 N   0  0  0  0  0  0  0  0  0  0  0  0
   -1.0323    0.7500    0.0000 C   0  0  0  0  0  0  0  0  0  0  0  0
   -2.3313    1.5000    0.0000 C   0  0  0  0  0  0  0  0  0  0  0  0
   -2.3313    3.0000    0.0000 C   0  0  0  0  0  0  0  0  0  0  0  0
   -3.6304    0.7500    0.0000 C   0  0  0  0  0  0  0  0  0  0  0  0
   -3.6304   -0.7500    0.0000 C   0  0  0  0  0  0  0  0  0  0  0  0
   -4.9294   -1.5000    0.0000 C   0  0  0  0  0  0  0  0  0  0  0  0
   -6.2284   -0.7500    0.0000 N   0  0  0  0  0  0  0  0  0  0  0  0
   -6.3852    0.7418    0.0000 C   0  0  0  0  0  0  0  0  0  0  0  0
   -5.2705    1.7455    0.0000 C   0  0  0  0  0  0  0  0  0  0  0  0
   -7.8525    1.0537    0.0000 N   0  0  0  0  0  0  0  0  0  0  0  0
   -8.6025   -0.2454    0.0000 C   0  0  0  0  0  0  0  0  0  0  0  0
  -10.0697   -0.5573    0.0000 C   0  0  0  0  0  0  0  0  0  0  0  0
  -10.5332   -1.9838    0.0000 C   0  0  0  0  0  0  0  0  0  0  0  0
   -9.5295   -3.0986    0.0000 C   0  0  0  0  0  0  0  0  0  0  0  0
   -8.0623   -2.7867    0.0000 C   0  0  0  0  0  0  0  0  0  0  0  0
   -7.0586   -3.9014    0.0000 C   0  0  0  0  0  0  0  0  0  0  0  0
   -5.5668   -3.7446    0.0000 N   0  0  0  0  0  0  0  0  0  0  0  0
   -4.9567   -5.1149    0.0000 C   0  0  0  0  0  0  0  0  0  0  0  0
   -3.5301   -5.5785    0.0000 C   0  0  0  0  0  0  0  0  0  0  0  0
   -3.2182   -7.0457    0.0000 C   0  0  0  0  0  0  0  0  0  0  0  0
   -4.3330   -8.0494    0.0000 C   0  0  0  0  0  0  0  0  0  0  0  0
   -5.7595   -7.5858    0.0000 C   0  0  0  0  0  0  0  0  0  0  0  0
   -6.0714   -6.1186    0.0000 C   0  0  0  0  0  0  0  0  0  0  0  0
   -7.3705   -5.3686    0.0000 N   0  0  0  0  0  0  0  0  0  0  0  0
   -8.7408   -5.9787    0.0000 C   0  0  0  0  0  0  0  0  0  0  0  0
   -7.5988   -1.3601    0.0000 C   0  0  0  0  0  0  0  0  0  0  0  0
   -2.3313   -1.5000    0.0000 C   0  0  0  0  0  0  0  0  0  0  0  0
   -2.3313   -3.0000    0.0000 C   0  0  0  0  0  0  0  0  0  0  0  0
   -1.0323   -3.7500    0.0000 C   0  0  0  0  0  0  0  0  0  0  0  0
   -1.0323   -5.2500    0.0000 C   0  0  0  0  0  0  0  0  0  0  0  0
   -2.3313   -6.0000    0.0000 C   0  0  0  0  0  0  0  0  0  0  0  0
   -3.6304   -5.2500    0.0000 C   0  0  0  0  0  0  0  0  0  0  0  0
   -3.6304   -3.7500    0.0000 C   0  0  0  0  0  0  0  0  0  0  0  0
   -1.0323   -0.7500    0.0000 C   0  0  0  0  0  0  0  0  0  0  0  0
    0.3943   -1.2135    0.0000 N   0  0  0  0  0  0  0  0  0  0  0  0
  1  2  1  0
  2  3  2  0
  3  4  1  0
  4  5  2  0
  5  6  1  0
  5  7  1  0
  7  8  2  0
  8  9  1  0
  9 10  1  0
 10 11  1  0
 11 12  1  0
 11 13  2  0
 13 14  1  0
 14 15  2  0
 15 16  1  0
 16 17  2  0
 17 18  1  0
 18 19  1  0
 19 20  2  0
 20 21  1  0
 21 22  2  0
 22 23  1  0
 23 24  2  0
 24 25  1  0
 25 26  2  0
 26 27  1  0
 27 28  1  0
 18 29  2  0
  8 30  1  0
 30 31  1  0
 31 32  2  0
 32 33  1  0
 33 34  2  0
 34 35  1  0
 35 36  2  0
 30 37  2  0
 37 38  1  0
 38  2  1  0
 37  4  1  0
 29 10  1  0
 36 31  1  0
 29 14  1  0
 27 19  1  0
 26 21  1  0
M  END
$$$$
