
     RDKit          2D

 48 55  0  0  0  0  0  0  0  0999 V2000
  -10.9623    4.2267    0.0000 C   0  0  0  0  0  0  0  0  0  0  0  0
  -10.3522    2.8563    0.0000 C   0  0  0  0  0  0  0  0  0  0  0  0
   -8.8604    2.6995    0.0000 C   0  0  0  0  0  0  0  0  0  0  0  0
   -8.2503    1.3292    0.0000 C   0  0  0  0  0  0  0  0  0  0  0  0
   -6.7585    1.1724    0.0000 C   0  0  0  0  0  0  0  0  0  0  0  0
   -6.0085   -0.1266    0.0000 N   0  0  0  0  0  0  0  0  0  0  0  0
   -4.5413    0.1853    0.0000 C   0  0  0  0  0  0  0  0  0  0  0  0
   -3.4266   -0.8184    0.0000 C   0  0  0  0  0  0  0  0  0  0  0  0
   -3.7384   -2.2856    0.0000 C   0  0  0  0  0  0  0  0  0  0  0  0
   -2.6237   -3.2893    0.0000 C   0  0  0  0  0  0  0  0  0  0  0  0
   -1.1971   -2.8258    0.0000 C   0  0  0  0  0  0  0  0  0  0  0  0
   -0.8853   -1.3586    0.0000 C   0  0  0  0  0  0  0  0  0  0  0  0
   -2.0000   -0.3549    0.0000 C   0  0  0  0  0  0  0  0  0  0  0  0
   -1.6881    1.1123    0.0000 C   0  0  0  0  0  0  0  0  0  0  0  0
   -0.2615    1.5758    0.0000 C   0  0  0  0  0  0  0  0  0  0  0  0
    0.0503    3.0431    0.0000 C   0  0  0  0  0  0  0  0  0  0  0  0
   -1.0644    4.0468    0.0000 C   0  0  0  0  0  0  0  0  0  0  0  0
   -2.4910    3.5832    0.0000 C   0  0  0  0  0  0  0  0  0  0  0  0
   -2.8028    2.1160    0.0000 C   0  0  0  0  0  0  0  0  0  0  0  0
   -4.2294    1.6525    0.0000 C   0  0  0  0  0  0  0  0  0  0  0  0
   -4.5413    0.1853    0.0000 C   0  0  0  0  0  0  0  0  0  0  0  0
   -5.9679   -0.2783    0.0000 C   0  0  0  0  0  0  0  0  0  0  0  0
   -7.0826    0.7254    0.0000 C   0  0  0  0  0  0  0  0  0  0  0  0
   -6.7707    2.1927    0.0000 C   0  0  0  0  0  0  0  0  0  0  0  0
   -5.3441    2.6562    0.0000 C   0  0  0  0  0  0  0  0  0  0  0  0
   -5.0323    4.1234    0.0000 C   0  0  0  0  0  0  0  0  0  0  0  0
   -3.6620    4.7335    0.0000 N   0  0  0  0  0  0  0  0  0  0  0  0
   -3.8187    6.2253    0.0000 N   0  0  0  0  0  0  0  0  0  0  0  0
   -5.2860    6.5372    0.0000 N   0  0  0  0  0  0  0  0  0  0  0  0
   -6.0360    5.2381    0.0000 N   0  0  0  0  0  0  0  0  0  0  0  0
   -4.3845    1.6771    0.0000 C   0  0  0  0  0  0  0  0  0  0  0  0
   -3.0855    2.4271    0.0000 O   0  0  0  0  0  0  0  0  0  0  0  0
   -1.7864    1.6771    0.0000 O   0  0  0  0  0  0  0  0  0  0  0  0
   -0.4874    2.4271    0.0000 C   0  0  0  0  0  0  0  0  0  0  0  0
   -1.0975    3.7974    0.0000 O   0  0  0  0  0  0  0  0  0  0  0  0
    0.3943    3.6406    0.0000 N   0  0  0  0  0  0  0  0  0  0  0  0
    1.8209    3.1771    0.0000 C   0  0  0  0  0  0  0  0  0  0  0  0
    3.0344    4.0587    0.0000 O   0  0  0  0  0  0  0  0  0  0  0  0
    4.4047    3.4486    0.0000 O   0  0  0  0  0  0  0  0  0  0  0  0
    1.8209    1.6771    0.0000 N   0  0  0  0  0  0  0  0  0  0  0  0
    0.3943    1.2135    0.0000 C   0  0  0  0  0  0  0  0  0  0  0  0
    1.2760    0.0000    0.0000 C   0  0  0  0  0  0  0  0  0  0  0  0
    0.3943   -1.2135    0.0000 C   0  0  0  0  0  0  0  0  0  0  0  0
   -1.0323   -0.7500    0.0000 C   0  0  0  0  0  0  0  0  0  0  0  0
   -1.0323    0.7500    0.0000 C   0  0  0  0  0  0  0  0  0  0  0  0
   -1.9964    1.8991    0.0000 O   0  0  0  0  0  0  0  0  0  0  0  0
   -5.7548    2.2872    0.0000 N   0  0  0  0  0  0  0  0  0  0  0  0
   -6.0667    3.7544    0.0000 Cl  0  0  0  0  0  0  0  0  0  0  0  0
  1  2  1  0
  2  3  1  0
  3  4  1  0
  4  5  1  0
  5  6  2  0
  6  7  1  0
  7  8  1  0
  8  9  2  0
  9 10  1  0
 10 11  2  0
 11 12  1  0
 12 13  2  0
 13 14  1  0
 14 15  2  0
 15 16  1  0
 16 17  2  0
 17 18  1  0
 18 19  2  0
 19 20  1  0
 20 21  2  0
 21 22  1  0
 22 23  2  0
 23 24  1  0
 24 25  2  0
 25 26  1  0
 26 27  2  0
 27 28  1  0
 28 29  1  0
 29 30  2  0
  7 31  2  0
 31 32  1  0
 32 33  1  0
 33 34  1  0
 34 35  1  0
 35 36  1  0
 36 37  1  0
 37 38  1  0
 38 39  1  0
 37 40  2  0
 40 41  1  0
 41 42  1  0
 42 43  1  0
 43 44  1  0
 44 45  1  0
 45 46  2  0
 31 47  1  0
 47 48  1  0
 47  5  1  0
 13  8  1  0
 19 14  1  0
 25 20  1  0
 30 26  1  0
 36 34  1  0
 45 41  1  0
 41 34  1  0
M  END
$$$$
