
     RDKit          2D

 32 36  0  0  0  0  0  0  0  0999 V2000
    1.4746    8.7232    0.0000 C   0  0  0  0  0  0  0  0  0  0  0  0
    0.4709    7.6085    0.0000 C   0  0  0  0  0  0  0  0  0  0  0  0
    0.9345    6.1819    0.0000 C   0  0  0  0  0  0  0  0  0  0  0  0
   -0.0692    5.0672    0.0000 C   0  0  0  0  0  0  0  0  0  0  0  0
    0.3943    3.6406    0.0000 C   0  0  0  0  0  0  0  0  0  0  0  0
   -0.4874    2.4271    0.0000 N   0  0  0  0  0  0  0  0  0  0  0  0
    0.3943    1.2135    0.0000 C   0  0  0  0  0  0  0  0  0  0  0  0
    1.2760    0.0000    0.0000 C   0  0  0  0  0  0  0  0  0  0  0  0
    0.3943   -1.2135    0.0000 C   0  0  0  0  0  0  0  0  0  0  0  0
   -1.0323   -0.7500    0.0000 C   0  0  0  0  0  0  0  0  0  0  0  0
   -1.0323    0.7500    0.0000 C   0  0  0  0  0  0  0  0  0  0  0  0
    1.8209    1.6771    0.0000 C   0  0  0  0  0  0  0  0  0  0  0  0
    3.0344    0.7954    0.0000 O   0  0  0  0  0  0  0  0  0  0  0  0
    1.8209    3.1771    0.0000 N   0  0  0  0  0  0  0  0  0  0  0  0
    3.0344    4.0587    0.0000 C   0  0  0  0  0  0  0  0  0  0  0  0
    3.0344    5.5587    0.0000 N   0  0  0  0  0  0  0  0  0  0  0  0
    4.4610    6.0223    0.0000 C   0  0  0  0  0  0  0  0  0  0  0  0
    4.9245    7.4488    0.0000 C   0  0  0  0  0  0  0  0  0  0  0  0
    3.9208    8.5636    0.0000 C   0  0  0  0  0  0  0  0  0  0  0  0
    4.3843    9.9901    0.0000 C   0  0  0  0  0  0  0  0  0  0  0  0
    5.8516   10.3020    0.0000 C   0  0  0  0  0  0  0  0  0  0  0  0
    6.8553    9.1873    0.0000 C   0  0  0  0  0  0  0  0  0  0  0  0
    6.3917    7.7607    0.0000 C   0  0  0  0  0  0  0  0  0  0  0  0
    7.3954    6.6460    0.0000 C   0  0  0  0  0  0  0  0  0  0  0  0
    8.8627    6.9579    0.0000 C   0  0  0  0  0  0  0  0  0  0  0  0
    9.8664    5.8431    0.0000 C   0  0  0  0  0  0  0  0  0  0  0  0
    9.4028    4.4166    0.0000 C   0  0  0  0  0  0  0  0  0  0  0  0
    7.9356    4.1047    0.0000 C   0  0  0  0  0  0  0  0  0  0  0  0
    6.9319    5.2194    0.0000 C   0  0  0  0  0  0  0  0  0  0  0  0
    5.3427    4.8087    0.0000 C   0  0  0  0  0  0  0  0  0  0  0  0
    4.4610    3.5952    0.0000 N   0  0  0  0  0  0  0  0  0  0  0  0
    4.9245    2.1686    0.0000 Cl  0  0  0  0  0  0  0  0  0  0  0  0
  1  2  1  0
  2  3  1  0
  3  4  1  0
  4  5  1  0
  5  6  2  0
  6  7  1  0
  7  8  1  0
  8  9  1  0
  9 10  1  0
 10 11  1  0
  7 12  1  0
 12 13  2  0
 12 14  1  0
 14 15  1  0
 15 16  2  0
 16 17  1  0
 17 18  1  0
 18 19  2  0
 19 20  1  0
 20 21  2  0
 21 22  1  0
 22 23  2  0
 23 24  1  0
 24 25  2  0
 25 26  1  0
 26 27  2  0
 27 28  1  0
 28 29  2  0
 17 30  2  0
 30 31  1  0
 31 32  1  0
 14  5  1  0
 31 15  1  0
 11  7  1  0
 23 18  1  0
 29 24  1  0
M  END
$$$$
