
     RDKit          2D

 16 18  0  0  0  0  0  0  0  0999 V2000
    2.6443    2.6836    0.0000 C   0  0  0  0  0  0  0  0  0  0  0  0
    1.8943    1.3846    0.0000 C   0  0  0  0  0  0  0  0  0  0  0  0
    0.3943    1.2135    0.0000 C   0  0  0  0  0  0  0  0  0  0  0  0
    1.2760    0.0000    0.0000 N   0  0  0  0  0  0  0  0  0  0  0  0
    0.3943   -1.2135    0.0000 C   0  0  0  0  0  0  0  0  0  0  0  0
   -1.0323   -0.7500    0.0000 N   0  0  0  0  0  0  0  0  0  0  0  0
   -1.0323    0.7500    0.0000 O   0  0  0  0  0  0  0  0  0  0  0  0
    1.8943   -1.2135    0.0000 C   0  0  0  0  0  0  0  0  0  0  0  0
    2.6443   -2.5126    0.0000 C   0  0  0  0  0  0  0  0  0  0  0  0
    4.1443   -2.5126    0.0000 C   0  0  0  0  0  0  0  0  0  0  0  0
    4.8943   -3.8116    0.0000 C   0  0  0  0  0  0  0  0  0  0  0  0
    6.3943   -3.8116    0.0000 O   0  0  0  0  0  0  0  0  0  0  0  0
    4.1443   -5.1106    0.0000 O   0  0  0  0  0  0  0  0  0  0  0  0
    4.8943   -1.2135    0.0000 C   0  0  0  0  0  0  0  0  0  0  0  0
    4.1443    0.0855    0.0000 C   0  0  0  0  0  0  0  0  0  0  0  0
    2.6443    0.0855    0.0000 C   0  0  0  0  0  0  0  0  0  0  0  0
  1  2  1  0
  2  3  2  0
  3  4  1  0
  4  5  1  0
  5  6  2  0
  6  7  1  0
  5  8  1  0
  8  9  2  0
  9 10  1  0
 10 11  1  0
 11 12  2  0
 11 13  1  0
 10 14  2  0
 14 15  1  0
 15 16  2  0
 16  2  1  0
  7  3  1  0
 16  8  1  0
M  END
$$$$
