
     RDKit          2D

 39 44  0  0  0  0  0  0  0  0999 V2000
    5.1814   -2.6490    0.0000 C   0  0  0  0  0  0  0  0  0  0  0  0
    3.7548   -2.1855    0.0000 C   0  0  0  0  0  0  0  0  0  0  0  0
    2.6401   -3.1891    0.0000 O   0  0  0  0  0  0  0  0  0  0  0  0
    1.2135   -2.7256    0.0000 N   0  0  0  0  0  0  0  0  0  0  0  0
    0.7500   -1.2990    0.0000 C   0  0  0  0  0  0  0  0  0  0  0  0
    1.5000    0.0000    0.0000 C   0  0  0  0  0  0  0  0  0  0  0  0
    0.7500    1.2990    0.0000 C   0  0  0  0  0  0  0  0  0  0  0  0
   -0.7500    1.2990    0.0000 C   0  0  0  0  0  0  0  0  0  0  0  0
   -1.5000    0.0000    0.0000 C   0  0  0  0  0  0  0  0  0  0  0  0
   -0.7500   -1.2990    0.0000 C   0  0  0  0  0  0  0  0  0  0  0  0
   -1.2135   -2.7256    0.0000 N   0  0  0  0  0  0  0  0  0  0  0  0
   -0.0000   -3.6073    0.0000 C   0  0  0  0  0  0  0  0  0  0  0  0
   -0.0000   -5.1073    0.0000 C   0  0  0  0  0  0  0  0  0  0  0  0
   -1.2990   -5.8573    0.0000 C   0  0  0  0  0  0  0  0  0  0  0  0
   -1.2990   -7.3573    0.0000 C   0  0  0  0  0  0  0  0  0  0  0  0
   -0.0000   -8.1073    0.0000 C   0  0  0  0  0  0  0  0  0  0  0  0
   -0.3119   -9.5745    0.0000 N   0  0  0  0  0  0  0  0  0  0  0  0
   -1.8037   -9.7313    0.0000 C   0  0  0  0  0  0  0  0  0  0  0  0
   -2.5537  -11.0304    0.0000 C   0  0  0  0  0  0  0  0  0  0  0  0
   -2.4138   -8.3610    0.0000 N   0  0  0  0  0  0  0  0  0  0  0  0
   -3.8810   -8.0491    0.0000 C   0  0  0  0  0  0  0  0  0  0  0  0
   -4.3445   -6.6225    0.0000 C   0  0  0  0  0  0  0  0  0  0  0  0
   -3.3408   -5.5078    0.0000 C   0  0  0  0  0  0  0  0  0  0  0  0
   -3.8043   -4.0812    0.0000 C   0  0  0  0  0  0  0  0  0  0  0  0
   -5.2716   -3.7694    0.0000 C   0  0  0  0  0  0  0  0  0  0  0  0
   -5.7351   -2.3428    0.0000 C   0  0  0  0  0  0  0  0  0  0  0  0
   -4.7314   -1.2281    0.0000 C   0  0  0  0  0  0  0  0  0  0  0  0
   -5.1949    0.1985    0.0000 C   0  0  0  0  0  0  0  0  0  0  0  0
   -6.6621    0.5104    0.0000 C   0  0  0  0  0  0  0  0  0  0  0  0
   -7.6658   -0.6043    0.0000 C   0  0  0  0  0  0  0  0  0  0  0  0
   -7.2023   -2.0309    0.0000 C   0  0  0  0  0  0  0  0  0  0  0  0
   -8.2060   -3.1456    0.0000 C   0  0  0  0  0  0  0  0  0  0  0  0
   -7.7425   -4.5722    0.0000 O   0  0  0  0  0  0  0  0  0  0  0  0
   -9.6732   -2.8338    0.0000 O   0  0  0  0  0  0  0  0  0  0  0  0
   -6.2752   -4.8841    0.0000 C   0  0  0  0  0  0  0  0  0  0  0  0
   -5.8117   -6.3107    0.0000 C   0  0  0  0  0  0  0  0  0  0  0  0
    1.2990   -7.3573    0.0000 C   0  0  0  0  0  0  0  0  0  0  0  0
    2.5981   -8.1073    0.0000 C   0  0  0  0  0  0  0  0  0  0  0  0
    1.2990   -5.8573    0.0000 C   0  0  0  0  0  0  0  0  0  0  0  0
  1  2  1  0
  2  3  1  0
  3  4  1  0
  4  5  1  0
  5  6  2  0
  6  7  1  0
  7  8  2  0
  8  9  1  0
  9 10  2  0
 10 11  1  0
 11 12  2  0
 12 13  1  0
 13 14  2  0
 14 15  1  0
 15 16  2  0
 16 17  1  0
 17 18  2  0
 18 19  1  0
 18 20  1  0
 20 21  1  0
 21 22  1  0
 22 23  2  0
 23 24  1  0
 24 25  2  0
 25 26  1  0
 26 27  2  0
 27 28  1  0
 28 29  2  0
 29 30  1  0
 30 31  2  0
 31 32  1  0
 32 33  2  0
 32 34  1  0
 25 35  1  0
 35 36  2  0
 16 37  1  0
 37 38  1  0
 37 39  2  0
 12  4  1  0
 39 13  1  0
 10  5  1  0
 20 15  1  0
 36 22  1  0
 31 26  1  0
M  END
$$$$
