
     RDKit          2D

 32 36  0  0  0  0  0  0  0  0999 V2000
    3.0344    0.7954    0.0000 O   0  0  0  0  0  0  0  0  0  0  0  0
    1.8209    1.6771    0.0000 C   0  0  0  0  0  0  0  0  0  0  0  0
    1.8209    3.1771    0.0000 N   0  0  0  0  0  0  0  0  0  0  0  0
    3.0344    4.0587    0.0000 C   0  0  0  0  0  0  0  0  0  0  0  0
    4.4047    3.4486    0.0000 C   0  0  0  0  0  0  0  0  0  0  0  0
    4.5615    1.9568    0.0000 C   0  0  0  0  0  0  0  0  0  0  0  0
    5.9318    1.3467    0.0000 C   0  0  0  0  0  0  0  0  0  0  0  0
    7.1454    2.2284    0.0000 C   0  0  0  0  0  0  0  0  0  0  0  0
    8.5157    1.6183    0.0000 O   0  0  0  0  0  0  0  0  0  0  0  0
    8.6725    0.1265    0.0000 C   0  0  0  0  0  0  0  0  0  0  0  0
    7.4589   -0.7552    0.0000 C   0  0  0  0  0  0  0  0  0  0  0  0
    7.6157   -2.2469    0.0000 C   0  0  0  0  0  0  0  0  0  0  0  0
    8.9861   -2.8570    0.0000 C   0  0  0  0  0  0  0  0  0  0  0  0
    9.1429   -4.3488    0.0000 C   0  0  0  0  0  0  0  0  0  0  0  0
    7.9293   -5.2305    0.0000 C   0  0  0  0  0  0  0  0  0  0  0  0
    8.0861   -6.7223    0.0000 C   0  0  0  0  0  0  0  0  0  0  0  0
    9.4564   -7.3324    0.0000 C   0  0  0  0  0  0  0  0  0  0  0  0
   10.6700   -6.4507    0.0000 C   0  0  0  0  0  0  0  0  0  0  0  0
   10.5132   -4.9589    0.0000 C   0  0  0  0  0  0  0  0  0  0  0  0
   10.1996   -1.9754    0.0000 C   0  0  0  0  0  0  0  0  0  0  0  0
   10.0428   -0.4836    0.0000 C   0  0  0  0  0  0  0  0  0  0  0  0
    6.9886    3.7202    0.0000 C   0  0  0  0  0  0  0  0  0  0  0  0
    5.6183    4.3303    0.0000 C   0  0  0  0  0  0  0  0  0  0  0  0
    0.3943    3.6406    0.0000 C   0  0  0  0  0  0  0  0  0  0  0  0
   -0.0692    5.0672    0.0000 O   0  0  0  0  0  0  0  0  0  0  0  0
    0.9345    6.1819    0.0000 O   0  0  0  0  0  0  0  0  0  0  0  0
   -0.4874    2.4271    0.0000 N   0  0  0  0  0  0  0  0  0  0  0  0
    0.3943    1.2135    0.0000 C   0  0  0  0  0  0  0  0  0  0  0  0
    1.2760    0.0000    0.0000 C   0  0  0  0  0  0  0  0  0  0  0  0
    0.3943   -1.2135    0.0000 C   0  0  0  0  0  0  0  0  0  0  0  0
   -1.0323   -0.7500    0.0000 C   0  0  0  0  0  0  0  0  0  0  0  0
   -1.0323    0.7500    0.0000 C   0  0  0  0  0  0  0  0  0  0  0  0
  1  2  2  0
  2  3  1  0
  3  4  1  0
  4  5  1  0
  5  6  2  0
  6  7  1  0
  7  8  2  0
  8  9  1  0
  9 10  1  0
 10 11  2  0
 11 12  1  0
 12 13  2  0
 13 14  1  0
 14 15  2  0
 15 16  1  0
 16 17  2  0
 17 18  1  0
 18 19  2  0
 13 20  1  0
 20 21  2  0
  8 22  1  0
 22 23  2  0
  3 24  1  0
 24 25  1  0
 25 26  1  0
 24 27  2  0
 27 28  1  0
 28 29  1  0
 29 30  1  0
 30 31  1  0
 31 32  1  0
 28  2  1  0
 23  5  1  0
 32 28  1  0
 21 10  1  0
 19 14  1  0
M  END
$$$$
