
     RDKit          2D

 25 28  0  0  0  0  0  0  0  0999 V2000
    2.7760    0.0000    0.0000 O   0  0  0  0  0  0  0  0  0  0  0  0
    1.2760    0.0000    0.0000 C   0  0  0  0  0  0  0  0  0  0  0  0
    0.3943    1.2135    0.0000 C   0  0  0  0  0  0  0  0  0  0  0  0
   -1.0323    0.7500    0.0000 C   0  0  0  0  0  0  0  0  0  0  0  0
   -1.0323   -0.7500    0.0000 C   0  0  0  0  0  0  0  0  0  0  0  0
    0.3943   -1.2135    0.0000 C   0  0  0  0  0  0  0  0  0  0  0  0
    1.8209   -1.6771    0.0000 N   0  0  0  0  0  0  0  0  0  0  0  0
    1.8209   -3.1771    0.0000 C   0  0  0  0  0  0  0  0  0  0  0  0
    3.0344   -4.0587    0.0000 O   0  0  0  0  0  0  0  0  0  0  0  0
    2.8776   -5.5505    0.0000 O   0  0  0  0  0  0  0  0  0  0  0  0
    4.0911   -6.4322    0.0000 C   0  0  0  0  0  0  0  0  0  0  0  0
    3.9343   -7.9240    0.0000 C   0  0  0  0  0  0  0  0  0  0  0  0
    5.1479   -8.8057    0.0000 C   0  0  0  0  0  0  0  0  0  0  0  0
    6.5182   -8.1955    0.0000 C   0  0  0  0  0  0  0  0  0  0  0  0
    7.7317   -9.0772    0.0000 C   0  0  0  0  0  0  0  0  0  0  0  0
    7.5749  -10.5690    0.0000 C   0  0  0  0  0  0  0  0  0  0  0  0
    8.7885  -11.4507    0.0000 C   0  0  0  0  0  0  0  0  0  0  0  0
   10.1588  -10.8406    0.0000 C   0  0  0  0  0  0  0  0  0  0  0  0
   10.3156   -9.3488    0.0000 C   0  0  0  0  0  0  0  0  0  0  0  0
    9.1020   -8.4671    0.0000 C   0  0  0  0  0  0  0  0  0  0  0  0
    6.6750   -6.7038    0.0000 C   0  0  0  0  0  0  0  0  0  0  0  0
    5.4615   -5.8221    0.0000 C   0  0  0  0  0  0  0  0  0  0  0  0
    0.3943   -3.6406    0.0000 N   0  0  0  0  0  0  0  0  0  0  0  0
   -0.4874   -2.4271    0.0000 C   0  0  0  0  0  0  0  0  0  0  0  0
   -1.9874   -2.4271    0.0000 O   0  0  0  0  0  0  0  0  0  0  0  0
  1  2  2  0
  2  3  1  0
  3  4  1  0
  4  5  1  0
  5  6  1  0
  6  7  1  0
  7  8  2  0
  8  9  1  0
  9 10  1  0
 10 11  1  0
 11 12  2  0
 12 13  1  0
 13 14  2  0
 14 15  1  0
 15 16  2  0
 16 17  1  0
 17 18  2  0
 18 19  1  0
 19 20  2  0
 14 21  1  0
 21 22  2  0
  8 23  1  0
 23 24  1  0
 24 25  2  0
  6  2  1  0
 22 11  1  0
 24  6  1  0
 20 15  1  0
M  END
$$$$
