
     RDKit          2D

 32 36  0  0  0  0  0  0  0  0999 V2000
    1.0111   10.1498    0.0000 C   0  0  0  0  0  0  0  0  0  0  0  0
    1.4746    8.7232    0.0000 C   0  0  0  0  0  0  0  0  0  0  0  0
    0.4709    7.6085    0.0000 C   0  0  0  0  0  0  0  0  0  0  0  0
    0.9345    6.1819    0.0000 C   0  0  0  0  0  0  0  0  0  0  0  0
   -0.0692    5.0672    0.0000 C   0  0  0  0  0  0  0  0  0  0  0  0
    0.3943    3.6406    0.0000 C   0  0  0  0  0  0  0  0  0  0  0  0
   -0.4874    2.4271    0.0000 N   0  0  0  0  0  0  0  0  0  0  0  0
    0.3943    1.2135    0.0000 C   0  0  0  0  0  0  0  0  0  0  0  0
    1.2760    0.0000    0.0000 C   0  0  0  0  0  0  0  0  0  0  0  0
    0.3943   -1.2135    0.0000 C   0  0  0  0  0  0  0  0  0  0  0  0
   -1.0323   -0.7500    0.0000 C   0  0  0  0  0  0  0  0  0  0  0  0
   -1.0323    0.7500    0.0000 C   0  0  0  0  0  0  0  0  0  0  0  0
    1.8209    1.6771    0.0000 C   0  0  0  0  0  0  0  0  0  0  0  0
    3.0344    0.7954    0.0000 O   0  0  0  0  0  0  0  0  0  0  0  0
    1.8209    3.1771    0.0000 N   0  0  0  0  0  0  0  0  0  0  0  0
    3.0344    4.0587    0.0000 C   0  0  0  0  0  0  0  0  0  0  0  0
    3.0344    5.5587    0.0000 N   0  0  0  0  0  0  0  0  0  0  0  0
    4.4610    6.0223    0.0000 C   0  0  0  0  0  0  0  0  0  0  0  0
    4.9245    7.4488    0.0000 C   0  0  0  0  0  0  0  0  0  0  0  0
    3.9208    8.5636    0.0000 C   0  0  0  0  0  0  0  0  0  0  0  0
    4.3843    9.9901    0.0000 C   0  0  0  0  0  0  0  0  0  0  0  0
    5.8516   10.3020    0.0000 C   0  0  0  0  0  0  0  0  0  0  0  0
    6.8553    9.1873    0.0000 C   0  0  0  0  0  0  0  0  0  0  0  0
    6.3917    7.7607    0.0000 C   0  0  0  0  0  0  0  0  0  0  0  0
    7.3954    6.6460    0.0000 C   0  0  0  0  0  0  0  0  0  0  0  0
    8.8872    6.8028    0.0000 N   0  0  0  0  0  0  0  0  0  0  0  0
    9.4973    5.4325    0.0000 N   0  0  0  0  0  0  0  0  0  0  0  0
    8.3826    4.4288    0.0000 N   0  0  0  0  0  0  0  0  0  0  0  0
    7.0836    5.1788    0.0000 N   0  0  0  0  0  0  0  0  0  0  0  0
    5.3427    4.8087    0.0000 C   0  0  0  0  0  0  0  0  0  0  0  0
    4.4610    3.5952    0.0000 N   0  0  0  0  0  0  0  0  0  0  0  0
    4.9245    2.1686    0.0000 Cl  0  0  0  0  0  0  0  0  0  0  0  0
  1  2  1  0
  2  3  1  0
  3  4  1  0
  4  5  1  0
  5  6  1  0
  6  7  2  0
  7  8  1  0
  8  9  1  0
  9 10  1  0
 10 11  1  0
 11 12  1  0
  8 13  1  0
 13 14  2  0
 13 15  1  0
 15 16  1  0
 16 17  2  0
 17 18  1  0
 18 19  1  0
 19 20  2  0
 20 21  1  0
 21 22  2  0
 22 23  1  0
 23 24  2  0
 24 25  1  0
 25 26  2  0
 26 27  1  0
 27 28  1  0
 28 29  2  0
 18 30  2  0
 30 31  1  0
 31 32  1  0
 15  6  1  0
 31 16  1  0
 12  8  1  0
 24 19  1  0
 29 25  1  0
M  END
$$$$
