
     RDKit          2D

 37 42  0  0  0  0  0  0  0  0999 V2000
    3.0344    0.7954    0.0000 O   0  0  0  0  0  0  0  0  0  0  0  0
    1.8209    1.6771    0.0000 C   0  0  0  0  0  0  0  0  0  0  0  0
    1.8209    3.1771    0.0000 N   0  0  0  0  0  0  0  0  0  0  0  0
    3.0344    4.0587    0.0000 O   0  0  0  0  0  0  0  0  0  0  0  0
    4.4047    3.4486    0.0000 O   0  0  0  0  0  0  0  0  0  0  0  0
    5.6183    4.3303    0.0000 N   0  0  0  0  0  0  0  0  0  0  0  0
    5.6183    5.8303    0.0000 C   0  0  0  0  0  0  0  0  0  0  0  0
    4.4047    6.7120    0.0000 Cl  0  0  0  0  0  0  0  0  0  0  0  0
    7.0448    6.2938    0.0000 N   0  0  0  0  0  0  0  0  0  0  0  0
    7.9265    5.0803    0.0000 C   0  0  0  0  0  0  0  0  0  0  0  0
    9.4265    5.0803    0.0000 C   0  0  0  0  0  0  0  0  0  0  0  0
   10.1765    3.7813    0.0000 C   0  0  0  0  0  0  0  0  0  0  0  0
   11.6765    3.7813    0.0000 C   0  0  0  0  0  0  0  0  0  0  0  0
   12.4265    2.4822    0.0000 C   0  0  0  0  0  0  0  0  0  0  0  0
   13.9183    2.3254    0.0000 N   0  0  0  0  0  0  0  0  0  0  0  0
   14.2302    0.8582    0.0000 N   0  0  0  0  0  0  0  0  0  0  0  0
   12.9311    0.1082    0.0000 N   0  0  0  0  0  0  0  0  0  0  0  0
   11.8164    1.1119    0.0000 N   0  0  0  0  0  0  0  0  0  0  0  0
   12.4265    5.0803    0.0000 C   0  0  0  0  0  0  0  0  0  0  0  0
   11.6765    6.3793    0.0000 C   0  0  0  0  0  0  0  0  0  0  0  0
   10.1765    6.3793    0.0000 C   0  0  0  0  0  0  0  0  0  0  0  0
    9.4265    7.6784    0.0000 C   0  0  0  0  0  0  0  0  0  0  0  0
    7.9347    7.8352    0.0000 N   0  0  0  0  0  0  0  0  0  0  0  0
    7.6229    9.3024    0.0000 N   0  0  0  0  0  0  0  0  0  0  0  0
    8.9219   10.0524    0.0000 N   0  0  0  0  0  0  0  0  0  0  0  0
   10.0366    9.0487    0.0000 N   0  0  0  0  0  0  0  0  0  0  0  0
    7.0448    3.8668    0.0000 C   0  0  0  0  0  0  0  0  0  0  0  0
    7.5084    2.4402    0.0000 O   0  0  0  0  0  0  0  0  0  0  0  0
    6.5047    1.3255    0.0000 O   0  0  0  0  0  0  0  0  0  0  0  0
    0.3943    3.6406    0.0000 C   0  0  0  0  0  0  0  0  0  0  0  0
   -0.0692    5.0672    0.0000 O   0  0  0  0  0  0  0  0  0  0  0  0
   -0.4874    2.4271    0.0000 N   0  0  0  0  0  0  0  0  0  0  0  0
    0.3943    1.2135    0.0000 C   0  0  0  0  0  0  0  0  0  0  0  0
    1.2760    0.0000    0.0000 C   0  0  0  0  0  0  0  0  0  0  0  0
    0.3943   -1.2135    0.0000 C   0  0  0  0  0  0  0  0  0  0  0  0
   -1.0323   -0.7500    0.0000 C   0  0  0  0  0  0  0  0  0  0  0  0
   -1.0323    0.7500    0.0000 C   0  0  0  0  0  0  0  0  0  0  0  0
  1  2  2  0
  2  3  1  0
  3  4  1  0
  4  5  1  0
  5  6  1  0
  6  7  1  0
  7  8  1  0
  7  9  2  0
  9 10  1  0
 10 11  1  0
 11 12  2  0
 12 13  1  0
 13 14  1  0
 14 15  2  0
 15 16  1  0
 16 17  1  0
 17 18  2  0
 13 19  2  0
 19 20  1  0
 20 21  2  0
 21 22  1  0
 22 23  2  0
 23 24  1  0
 24 25  1  0
 25 26  2  0
 10 27  2  0
 27 28  1  0
 28 29  1  0
  3 30  1  0
 30 31  1  0
 30 32  2  0
 32 33  1  0
 33 34  1  0
 34 35  1  0
 35 36  1  0
 36 37  1  0
 33  2  1  0
 27  6  1  0
 37 33  1  0
 21 11  1  0
 26 22  1  0
 18 14  1  0
M  END
$$$$
